<?xml version="1.0" encoding="UTF-8"?>

<!-- generated on 2024-05-06 16:56:02.700150 by osmWebWizard.py UNKNOWN
<configuration>
    <net-file value="/opt/homebrew/Cellar/sumo/1.19.0/share/sumo/tools/2024-05-06-16-55-56/osm.net.xml.gz"/>
    <output-trip-file value="/opt/homebrew/Cellar/sumo/1.19.0/share/sumo/tools/2024-05-06-16-55-56/osm.pedestrian.trips.xml"/>
    <route-file value="/opt/homebrew/Cellar/sumo/1.19.0/share/sumo/tools/2024-05-06-16-55-56/osm.pedestrian.rou.xml"/>
    <pedestrians value="True"/>
    <prefix value="ped"/>
    <vehicle-class value="pedestrian"/>
    <fringe-factor value="1"/>
    <max-distance value="2000.0"/>
    <insertion-density value="10.0"/>
</configuration>
-->

<!-- generated on 2024-05-06 16:56:02 by Eclipse SUMO duarouter Version 1.19.0
<configuration xmlns:xsi="http://www.w3.org/2001/XMLSchema-instance" xsi:noNamespaceSchemaLocation="http://sumo.dlr.de/xsd/duarouterConfiguration.xsd">

    <input>
        <net-file value="/opt/homebrew/Cellar/sumo/1.19.0/share/sumo/tools/2024-05-06-16-55-56/osm.net.xml.gz"/>
        <route-files value="/opt/homebrew/Cellar/sumo/1.19.0/share/sumo/tools/2024-05-06-16-55-56/osm.pedestrian.trips.xml"/>
    </input>

    <output>
        <output-file value="/opt/homebrew/Cellar/sumo/1.19.0/share/sumo/tools/2024-05-06-16-55-56/osm.pedestrian.rou.xml"/>
        <alternatives-output value="NUL"/>
    </output>

    <time>
        <begin value="0.0"/>
        <end value="3600.0"/>
    </time>

    <report>
        <no-warnings value="true"/>
        <ignore-errors value="true"/>
        <no-step-log value="true"/>
    </report>

</configuration>
-->

<routes xmlns:xsi="http://www.w3.org/2001/XMLSchema-instance" xsi:noNamespaceSchemaLocation="http://sumo.dlr.de/xsd/routes_file.xsd">
    <vType id="ped_pedestrian" vClass="pedestrian"/>
    <person id="ped0" type="ped_pedestrian" depart="0.00">
        <walk edges="202499353#1 555758425#0 202499351#0 202555478#0 37432216 185992505#0 185992436 185992473 185992491 185992443#0 185992443#1 202491390 185992507 185992457 185992464 185992481 185992459#0 185992459#1 185992432#0 185992432#1 185992432#2 185494494#0 185494494#1 202491389 202491388 185494496 185992484 185992454 185494493#0 185494497#2 185494466#1 185494466#2 29036691#0 29036906#0 32298004#2 32298004#1 32298004#0 32298012 13622240 403685571 16361899#1 43709975 201507896 449241023#0 449241023#1 449241019 169127798 1036411468 169127863 449240478 449240479#0 449240483#0 449240483#1 449240482#4 449240484 449240485 -23320724#0 -169224407#2 -169224407#3"/>
    </person>
    <person id="ped1" type="ped_pedestrian" depart="8.10">
        <walk edges="115373685#4 115373685#3 115373685#2 115373685#1 115373685#0 115373676 115373675#1 115373650#1 115373650#2"/>
    </person>
    <person id="ped2" type="ped_pedestrian" depart="16.21">
        <walk edges="29036037#1 185494500#1 185494500#0 403701947 202555475#7 202555475#6 202555475#5 202555475#4 202555475#3 202555475#2 202555475#1 202555475#0 202555478#1 202555478#0"/>
    </person>
    <person id="ped3" type="ped_pedestrian" depart="24.31">
        <walk edges="403685571 13622240 32298012 32298004#0 32298004#1 32298004#2 29036906#0 29036691#0 185494466#2 185494466#1 185494466#0 -185494489#0 185494489#1 -26735019"/>
    </person>
    <person id="ped4" type="ped_pedestrian" depart="32.42">
        <walk edges="185953711#0 185953711#1 185953711#2 185953707 185953714#0 185953714#1 185953714#2 185953709 185953715#0 185953715#1 186033160#0 186037695 -274191618#1 -274191618#0 -185953704#5 -185953704#4 -185953704#3 -185953704#2 29036825#5 29036825#4 29036825#3 29036825#2 185494497#0 185494497#1 185494493#1 185494492 185992485 185992466 185992498 185992462 185992438 -185494489#0"/>
    </person>
    <person id="ped6" type="ped_pedestrian" depart="48.62">
        <walk edges="-177517492 186044035 185953711#1 185953711#2 185953707 185953714#0 185953714#1 185953714#2 185953709 185953715#0 -186037699#1 -202555475#11 -202555475#10 -202555475#9 -202555475#8 -202555475#7 -202555475#6 202555475#5 202555475#4 202555475#3 202555475#2 202555475#1 202555475#0 202555478#1 37432216 185992505#0 185992436 185992473 185992491 185992443#0 185992443#1 202491390 185992507 185992457 185992464 185992481 185992459#0 -195959129#0 1111016560"/>
    </person>
    <person id="ped7" type="ped_pedestrian" depart="56.73">
        <walk edges="202499360 184153437#0 184153436 186025292#0 37432224#0 37432217#1 202421488#0 202421488#1 202421488#2 202421488#3 202421488#4 186029487#1"/>
    </person>
    <person id="ped9" type="ped_pedestrian" depart="72.93">
        <walk edges="366030061 366030062#0 -23439978#1 -23439978#0 -169224407#3 -169224407#2 -23320724#0 449240485 449240484 449240482#4 449240483#1 449240483#0 449240479#0 449240478 169127863 1036411468 169127798 449241019 449241023#1 449241023#0 201507896 43709975 16361899#1 403685571 13622240 9514888#5 -9514888#4 -1254646407"/>
    </person>
    <person id="ped11" type="ped_pedestrian" depart="89.14">
        <walk edges="16361904#0 -16361892#2 -29036694#1 -29036694#0 29036825#6 29036825#5 29036825#4 29036825#3 29036825#2 29036825#1 227157184 227157188 185992432#0 185992459#1 185992459#0 185992481 185992464 185992457 185992507 202491390 185992443#1 185992443#0 185992491 185992473 185992436 185992505#0 37432216 202555478#0 202499351#0 -555758425#0 202499352#0 202499352#1 390062306#0 390062306#1 202499354 1035471348"/>
    </person>
    <person id="ped13" type="ped_pedestrian" depart="105.35">
        <walk edges="-281963714#0 -281963714#1 -387212678 281963712 281915930#1 186033159 185953706#1 185953706#0 1035471346 -274191618#1 -274191618#0 -185953704#5 29036040#2 -29036040#1"/>
    </person>
    <person id="ped15" type="ped_pedestrian" depart="121.56">
        <walk edges="366030059#0 366030059#1 -23439978#0 -169224407#3 -169224407#2 -23320724#0 449240485 449240484 449240482#4 449240483#1 449240483#0 449240479#0 449240478 169127863 1036411468 169127798 449241019 449241023#1 449241023#0 201507896 43709975 16361899#1 403685571 13622240 9514888#6 9514888#7 9514888#8 -9514888#9 -9514888#10 29036033#1"/>
    </person>
    <person id="ped16" type="ped_pedestrian" depart="129.66">
        <walk edges="186029482#1 202555475#7 403701947 185494500#0 185494500#1 29036037#0 29036036 29036035#0 185494467 185953704#2 29036825#6 -29036694#0 -29036694#1 -16361892#3 29036827 785383463#1"/>
    </person>
    <person id="ped17" type="ped_pedestrian" depart="137.76">
        <walk edges="185494477 29036684#0 29036684#1 185494475 185494476#0 185494476#1 185494482 185494474 29036035#0 29036036 29036037#0 185494500#1 185494500#0 403701947 202555475#7 186029482#1 281910435 202421488#6 202421488#5 186029487#0 186029472 186004306#3 186029493"/>
    </person>
    <person id="ped18" type="ped_pedestrian" depart="145.87">
        <walk edges="39827699 281963713 -391867836 -281963714#0 -281963714#1 -387212678 281963712 281915930#1 186033159 -185953706#1 186033160#2 -186037699#1 -202555475#11 -202555475#10 -202555475#9 -202555475#8 -202555475#7 186029482#1 281910435 202421488#6 202421488#5"/>
    </person>
    <person id="ped20" type="ped_pedestrian" depart="162.08">
        <walk edges="274191015 274191010 -9514888#9 -9514888#8 29036906#1 29036906#0 29036691#0 185494466#2 -202499998#1 202499998#0 -195959128"/>
    </person>
    <person id="ped24" type="ped_pedestrian" depart="194.49">
        <walk edges="202499351#0 202555478#0 37432216 185992505#0 185992436 185992473 185992491 185992443#0 185992443#1 202491390 185992507 185992457 185992464 185992481 185992459#0 185992459#1 185992432#0 185992432#1 185992432#2 185494494#0 185494494#1 202491389 202491388 185494496 185992484 185992454 185494493#0 185494497#2 185494466#1"/>
    </person>
    <person id="ped27" type="ped_pedestrian" depart="218.80">
        <walk edges="202499359 202499361 202499356 186044032 37432217#1 37432217#0 185992495 202491392 202491391 185992469 185992452 185992445 185992471#1 185992471#0 185992440 185992447 185992477 202491393#1 202554620 185992450 185992496 185992489 202554619 185992433 202554618 185992505#1 185992505#0 185992436 185992473 185992491 185992443#0 185992443#1 202491390 185992507 185992457 185992464 185992481 185992459#0 185992459#1 185992432#0 185992432#1 185992432#2 185494494#0 185494494#1 202491389 202491388 185494496 185992484 185992454 185494493#0 185494497#2 185494466#1 185494466#2 29036691#0 29036906#0 32298004#2 32298004#1 32298004#0 32298002#4 32298011 -404783326 -9514888#4 -9514888#3 -9514888#2 202223918"/>
    </person>
    <person id="ped29" type="ped_pedestrian" depart="235.01">
        <walk edges="1104610967 -1104610966 1104610965 -195959129#0 185992459#1 185992432#0 227157188 227157184 29036825#1 29036825#2 29036825#3 29036825#4 29036684#0 185494477 29036683 185494499#1 185494473 185494486 185494471 185494490 274191615#0 274191615#1 185494484 185494483 185494495 185494472 185494491 185494470 185494487 185494481"/>
    </person>
    <person id="ped30" type="ped_pedestrian" depart="243.11">
        <walk edges="9514888#7 29036906#1 29036906#0 29036691#0 185494466#2 185494466#1 185494497#2 185494493#0 185992454 185992484 185494496 202491388 202491389 185494494#1 185494494#0 185992432#2 185992432#1 185992432#0 185992459#1 185992459#0 185992481 185992464 185992457 185992507 202491390 185992443#1 185992443#0 185992491 185992473 185992436 185992505#0 37432216 202555478#0 202499351#0 555758425#0 202499353#1"/>
    </person>
    <person id="ped31" type="ped_pedestrian" depart="251.22">
        <walk edges="186029502 186004306#12 186029481 186029478 -202555475#9 -202555475#8 -202555475#7 -202555475#6 202555475#5 202555475#4 202555475#3 202555475#2 202555475#1 202555475#0 202555478#1 37432216 185992505#0 185992436 185992473 185992491 185992443#0 185992443#1 202491390 185992507 185992457 185992464 185992481 185992459#0 185992459#1 185992432#0 227157188"/>
    </person>
    <person id="ped37" type="ped_pedestrian" depart="299.84">
        <walk edges="202500000 185494476#0 185494475 29036684#1 29036825#4 29036825#3 29036825#2 185494497#0 185992729#1 185992729#0 185494494#1"/>
    </person>
    <person id="ped38" type="ped_pedestrian" depart="307.94">
        <walk edges="449240481#1 449240481#0 449241028#1 173830023#0 173830022 -785383463#1 29036827 -16361892#3 -29036694#1 -29036694#0 29036825#6 29036825#5 29036825#4 29036825#3 29036825#2 185494497#0 185494497#1 185494493#1 185494492 185992485 185992466 185992498 185992462"/>
    </person>
    <person id="ped39" type="ped_pedestrian" depart="316.05">
        <walk edges="115373681#1 115373663#0 115373682#0 115373676 115373675#1 115373675#0 115373667 115373649#0 115373648 115373665#3"/>
    </person>
    <person id="ped41" type="ped_pedestrian" depart="332.25">
        <walk edges="186032824#1 186032819 186032820 186032823 -202555475#2 -202555475#1 -202555475#0 202555478#1 37432216 185992505#0 185992436 185992473 185992491 185992443#0 185992443#1 202491390 185992507 185992457 185992464 185992481 185992459#0 185992459#1 185992432#0 185992432#1 185992432#2 185494494#0 185494494#1 202491389 202491388 185494496 185992484 185992454 185494493#0 185494497#2 185494466#1 185494466#2 29036691#0 29036691#1 404783330"/>
    </person>
    <person id="ped43" type="ped_pedestrian" depart="348.46">
        <walk edges="98502157 -169224407#2 -23320724#0 449240485 449240484 449240482#4 449240483#1 449240483#0 449240479#0 449240478 169127863 1036411468 169127798 449241019 449241023#1 449241023#0 201507896 43709975 16361899#1 403685571 13622240 9514888#6 9514888#7 9514888#8 -9514888#9 -9514888#10 -185953704#0 185494499#0 29036683 185494477 29036684#0 29036684#1 185494475 185494476#0 185494476#1 185494482 185494474 29036035#0 29036036 29036037#0 185494500#1 185494500#0 403701947 202555475#7 186029482#1 186029482#0 186029466 186004306#8 186029491 186029460"/>
    </person>
    <person id="ped45" type="ped_pedestrian" depart="364.67">
        <walk edges="-37432224#0 37432217#1 37432217#0 185992495 202491392 202491391 185992469 185992452 185992445 185992471#1 185992471#0 185992440 185992447 185992477 202491393#1"/>
    </person>
    <person id="ped47" type="ped_pedestrian" depart="380.88">
        <walk edges="-202555475#2 -202555475#3 -202555475#4 -202555475#5 202555475#6 202555475#7 403701947 185494500#0 185494500#1 29036037#0 29036036 29036035#0 185494474 185494482 185494476#1 185494476#0 185494475 29036684#1 29036684#0 185494477 29036683 185494499#1 185494473 185494486 185494471 185494490 274191615#0 274191615#1 185494484 185494483"/>
    </person>
    <person id="ped48" type="ped_pedestrian" depart="388.98">
        <walk edges="98502152 98502157 -169224407#2 -23320724#0 449240485 449240484 449240482#4 449240483#1 449240483#0 449240479#0 449240478 169127863 1036411468 169127798 449241019 449241023#1 449241023#0 201507896 43709975 16361899#1 403685571 13622240 9514888#6 9514888#7 9514888#8 -9514888#9 -9514888#10 -185953704#0 185494499#0 29036683 185494477 29036684#0 29036684#1 185494475 185494476#0 185494476#1 185494482 185494474 29036035#0 29036036 29036037#0 185494500#1 185494500#0 403701947 202555475#8 -202555475#9 186029478"/>
    </person>
    <person id="ped50" type="ped_pedestrian" depart="405.19">
        <walk edges="-16361892#1 16361904#1 43709974 281963712 281956712"/>
    </person>
    <person id="ped51" type="ped_pedestrian" depart="413.29">
        <walk edges="205275738 202499345#0 202499345#1 387155265 202499353#0 202499353#1 555758425#0 -202499351#3 -202555478#0 -202555478#1 -202555475#0 -202555475#1 -202555475#2 -202555475#3 -202555475#4 -202555475#5 -202555475#6 186029482#1"/>
    </person>
    <person id="ped53" type="ped_pedestrian" depart="429.50">
        <walk edges="-37432224#1 -37432224#2 37432224#3 -37432224#4 229395032 25973396#1 262936728 185953711#0 185953711#1 185953711#2 185953707 185953714#0 185953714#1 185957518"/>
    </person>
    <person id="ped59" type="ped_pedestrian" depart="478.12">
        <walk edges="202223918 -9514888#2 -9514888#3 -9514888#4 -9514888#5 -9514888#6 -9514888#7 -9514888#8 -9514888#9"/>
    </person>
    <person id="ped60" type="ped_pedestrian" depart="486.23">
        <walk edges="29036825#3 29036825#4 29036684#1 185494475 185494476#0 185494476#1 185494482 185494474 29036035#0 29036036 29036037#0 185494500#1 185494500#0 403701947 202555475#7 186029482#1 281910435 202421488#6 202421488#5 202421488#4 202421488#3 202421488#2 186029484#0"/>
    </person>
    <person id="ped61" type="ped_pedestrian" depart="494.33">
        <walk edges="32298002#5 32298004#0 32298004#1 32298004#2 29036906#0 29036691#0 185494466#2 185494466#1 185494497#2 185494493#0 185992454 185992484 185494496 202491388 202491389 185494494#1 185494494#0 185992432#2 185992432#1 185992432#0 185992459#1 185992459#0 185992481 185992464 185992457 185992507 202491390 185992443#1 185992443#0 185992491 185992473 185992436 185992505#0 185992505#1 202554618 185992433 202554619 185992489 185992496 185992450 202554620 202491393#1 185992477 185992447 185992440 185992471#0 185992471#1 185992445 185992452 185992469 202491391 202491392 185992495 37432217#0 202421488#0 202421488#1 202421488#2 186029474#0 37432211 186004306#0 186029479"/>
    </person>
    <person id="ped62" type="ped_pedestrian" depart="502.43">
        <walk edges="-107222601#0 404783330 29036691#1 29036691#0 185494466#2 185494466#1 185494497#2 185494493#0 185992454 185992484 185494496 202491388 202491389 185494494#1 185494494#0 185992432#2 185992432#1 185992432#0 185992459#1 185992459#0 185992481 185992464 185992457 185992507 202491390 185992443#1 185992443#0 185992491 185992473 185992436 185992505#0 185992505#1 202554618 185992433 202554619 185992489 185992496 185992450 202554620 202491393#1 185992477 185992447 185992440 185992471#0 202554621#0 1219738104#7 1219738104#6 1219738104#5 1219738431#1"/>
    </person>
    <person id="ped63" type="ped_pedestrian" depart="510.54">
        <walk edges="-16361899#3 -16361899#2 16361899#1 43709975 201507896 449241023#0 449241023#1"/>
    </person>
    <person id="ped64" type="ped_pedestrian" depart="518.64">
        <walk edges="401262922#2 400881350#3 400881350#4 400881349#1 400881349#0"/>
    </person>
    <person id="ped65" type="ped_pedestrian" depart="526.74">
        <walk edges="1219738104#0 1219738104#1 1219738104#2 1219738104#3 1219738104#4 1219738104#5 1219738104#6 1219738104#7 202554621#0 185992471#0 185992440 185992447 185992477 202491393#1 202491393#0 202491394 185992510 185992479 37432219 -202555475#0"/>
    </person>
    <person id="ped68" type="ped_pedestrian" depart="551.06">
        <walk edges="-202555475#7 403701947 185494500#0 185494500#1 29036037#0 29036036 29036035#0 185494474 185494482 185494476#1 185494476#0 185494475 29036684#1 29036825#4 29036825#3 29036825#2 29036825#1"/>
    </person>
    <person id="ped69" type="ped_pedestrian" depart="559.16">
        <walk edges="29036825#6 185953704#1 185953704#0 9514888#10 9514888#9 9514888#8 -9514888#7 -9514888#6 32298012 32298002#4 32298002#3 32298002#2 32298002#1 -60430587"/>
    </person>
    <person id="ped70" type="ped_pedestrian" depart="567.26">
        <walk edges="185992495 37432217#0 202421488#0 202421488#1 202421488#2 186029474#0 37432211 186004306#0 186004306#1 186004306#2 186004306#3 186004306#4 186004306#5 186004306#6 186004306#7 186004306#8 186029491"/>
    </person>
    <person id="ped73" type="ped_pedestrian" depart="591.57">
        <walk edges="186029484#0 202421488#2 202421488#3 202421488#4 202421488#5 202421488#6 281910435 186029482#1 202555475#7 403701947 185494500#0 185494500#1 29036037#0 29036036 29036035#0 185494474 185494482 185494476#1 185494476#0 185494475 29036684#1 29036684#0 185494477 29036683 185494499#0 -185953704#0 29036033#1"/>
    </person>
    <person id="ped76" type="ped_pedestrian" depart="615.89">
        <walk edges="185992432#0 185992459#1 185992459#0 185992481 185992464 185992457 185992507 202491390 185992443#1 185992443#0 185992491 185992473 185992436 185992505#0 37432216 202555478#1 202555475#0 202555475#1 202555475#2 202555475#3 202555475#4 202555475#5 -202555475#6 -202555475#7 -202555475#8 186029469 186029488 186004306#10 186029492 186029470"/>
    </person>
    <person id="ped78" type="ped_pedestrian" depart="632.09">
        <walk edges="16361899#4 274191618#0 274191618#1 186037695 186033160#0"/>
    </person>
    <person id="ped79" type="ped_pedestrian" depart="640.20">
        <walk edges="115373657#0 115373652#2 115373665#0 115373665#1 115373665#2 115373648 115373649#0 115373667 115373675#0 115373650#0"/>
    </person>
    <person id="ped80" type="ped_pedestrian" depart="648.30">
        <walk edges="-202555475#9 -202555475#8 -202555475#7 -202555475#6 -202555475#5 -202555475#4 -202555475#3 -202555475#2 -202555475#1 -202555475#0 -202555478#1 -202555478#0 -202499351#3 555758425#0 202499353#1 202499353#0 387155265 202499345#1"/>
    </person>
    <person id="ped85" type="ped_pedestrian" depart="688.82">
        <walk edges="449241824#1 449241824#0 449241825 449240480#1 449241028#1 173830023#0 173830022 -785383463#1 29036827 -16361892#3 -29036694#1 -29036694#0 29036825#6 185953704#2 185494467 29036035#0 29036036 29036037#0 185494500#1 185494500#0 403701947 202555475#7 186029482#1 186029482#0 186029466 186004306#7 186029489 186029459 186031001 186031003 186031004#0"/>
    </person>
    <person id="ped86" type="ped_pedestrian" depart="696.92">
        <walk edges="185992489 202554619 185992433 202554618 185992505#1 185992505#0 185992436 185992473 185992491 185992443#0 185992443#1 202491390 185992507 185992457 185992464 185992481 185992459#0 185992459#1 185992432#0 185992432#1 185992432#2 185494494#0 185494494#1 202491389 202491388 185494496 185992484 185992454 185494493#0 185494497#2 185494466#1 185494466#2 29036691#0 29036906#0 32298004#2 32298004#1 32298008"/>
    </person>
    <person id="ped88" type="ped_pedestrian" depart="713.13">
        <walk edges="-29036040#1 29036040#2 -185953704#5 -274191618#0 -274191618#1 186037695 186033160#0 185953715#1 185953715#0"/>
    </person>
    <person id="ped89" type="ped_pedestrian" depart="721.23">
        <walk edges="185953711#1 185953711#0 262936728 25973396#1 229395032 -37432224#4 37432224#3 -37432224#2 -37432224#1 37432224#0 37432217#1 37432217#0 185992495 202491392 202491391 185992469 185992452 185992445 185992471#1 185992471#0 185992440 185992447 185992477"/>
    </person>
    <person id="ped90" type="ped_pedestrian" depart="729.34">
        <walk edges="281970525 993410869 -387212678 281963712 281915930#1 186033159 -185953706#1 186033160#2 186033160#0 185953715#1 186037699#0 202555475#11 202555475#10 202555475#9 202555475#8 202555475#7"/>
    </person>
    <person id="ped91" type="ped_pedestrian" depart="737.44">
        <walk edges="9514888#2 9514888#3 9514888#4 9514888#5 9514888#6 9514888#7 9514888#8 9514888#9 9514888#10 185953704#0 185953704#1 185953704#2 -185953704#3 -185953704#4 -29036040#2"/>
    </person>
    <person id="ped92" type="ped_pedestrian" depart="745.55">
        <walk edges="185494497#2 185494497#1 185494497#0 29036825#2 29036825#3 29036825#4 29036825#5 29036825#6 -29036694#0 -29036694#1 -16361892#3 29036827 -785383463#1 785383463#2 16361902"/>
    </person>
    <person id="ped98" type="ped_pedestrian" depart="794.17">
        <walk edges="186029491 186004306#8 186029466 186029482#0 186029482#1 202555475#7 403701947 185494500#0 185494500#1 29036037#0 29036036 29036035#0 185494474 185494482 185494476#1 185494476#0 185494475 29036684#1 29036684#0 185494477 29036683 185494499#0 -185953704#0 -9514888#10 -9514888#9 -9514888#8 -9514888#7 -9514888#6 -9514888#5 -9514888#4 -9514888#3 -202223915"/>
    </person>
    <person id="ped103" type="ped_pedestrian" depart="834.69">
        <walk edges="185494497#1 185992729#1 185992729#0 185494494#0 185992432#2 185992432#1 185992432#0 185992459#1 185992459#0 185992481 185992464 185992457 185992507 202491390 185992443#1 185992443#0 185992491 185992473 185992436 185992505#0 37432216 202555478#1 -202555475#0"/>
    </person>
    <person id="ped104" type="ped_pedestrian" depart="842.79">
        <walk edges="185494481 185494487 185494470 185494491 185494472 185494495 185494483 185494484 274191615#1 274191615#0 185494490 185494471 185494486 185494473 185494499#1 185494499#0 -185953704#0 -9514888#10 -9514888#9 9514888#8 9514888#7 9514888#6 9514888#5 9514888#4 9514888#3"/>
    </person>
    <person id="ped106" type="ped_pedestrian" depart="859.00">
        <walk edges="185992457 185992507 202491390 185992443#1 185992443#0 185992491 185992473 185992436 185992505#0 37432216 202555478#1 202555475#0 202555475#1 202555475#2 202555475#3 202555475#4 202555475#5 -202555475#6 -202555475#7 -202555475#8 -202555475#9 -202555475#10 -202555475#11 -186037699#1 185953715#0 185953709 185953714#2 185953714#1 185953714#0 185953707 185953711#2 185953711#1 185953711#0"/>
    </person>
    <person id="ped108" type="ped_pedestrian" depart="875.21">
        <walk edges="186029497 186029477#0 202421488#1 202421488#2 202421488#3 202421488#4 202421488#5 202421488#6 281910435"/>
    </person>
    <person id="ped110" type="ped_pedestrian" depart="891.41">
        <walk edges="60430588 32298002#1 32298002#2 32298002#3 32298002#4 32298004#0 32298004#1 32298004#2 29036906#0 29036691#0 185494466#2 185494466#1 185494497#2 185494493#0 185992454 185992484 185494496 202491388 202491389 185494494#1 185494494#0 185992432#2 185992432#1 185992432#0 185992459#1 185992459#0 185992481 185992464 185992457 185992507 202491390 185992443#1 185992443#0 185992491 185992473 185992436 185992505#0 37432216 202555478#1 -202555475#0 -202555475#1 -202555475#2 186032823 186032820"/>
    </person>
    <person id="ped111" type="ped_pedestrian" depart="899.52">
        <walk edges="186029486 186029471 -202555475#10 -202555475#9 202555475#8 403701947 185494500#0 185494500#1 29036037#0 29036036 29036035#0 185494474 185494482 185494476#1 185494476#0 185494475 29036684#1 29036684#0 185494477 29036683 185494499#1 185494473 185494486 185494471 185494490 274191615#0 29036685"/>
    </person>
    <person id="ped112" type="ped_pedestrian" depart="907.62">
        <walk edges="-202554621#1 202554621#0 185992471#0 185992440 185992447 185992477 202491393#1 202491393#0 202491394 185992510 185992479 37432219 -202555475#0 -202555475#1 -202555475#2 186032823 186032820 186032819 186032824#1"/>
    </person>
    <person id="ped119" type="ped_pedestrian" depart="964.35">
        <walk edges="186044035 185953711#0 262936728 25973396#1 229395032 33565020 186031004#1 186031003 186031001 186029459 186029489 186004306#6 186029461 186029503 186029467#0 202421488#6"/>
    </person>
    <person id="ped120" type="ped_pedestrian" depart="972.45">
        <walk edges="185953707 185953714#0 185953714#1 185953714#2 185953709 185953715#0 -186037699#1 -202555475#11 -202555475#10 -202555475#9 -202555475#8 -202555475#7 -202555475#6 -202555475#5 -202555475#4 -202555475#3 186032823 186032820 186032819 186032824#0"/>
    </person>
    <person id="ped121" type="ped_pedestrian" depart="980.55">
        <walk edges="186029474#0 202421488#3 202421488#4 202421488#5 202421488#6 281910435 186029482#1 202555475#7 403701947 185494500#0 185494500#1 29036037#0 29036036 29036035#0 185494467 185953704#2 29036825#6 -29036694#0 -29036694#1 -16361892#3 29036827 -785383463#1 173830022 173830023#0 449241028#1 449240480#1 449241825 449241824#0"/>
    </person>
    <person id="ped125" type="ped_pedestrian" depart="1012.97">
        <walk edges="1219738105 1219738104#1 1219738104#2 1219738104#3 1219738104#4 1219738104#5 1219738104#6 1219738104#7 202554621#0 185992471#0 185992440 185992447 185992477 202491393#1 202491393#0 202491394 185992510 185992479 37432219 -202555475#0 -202555475#1 202555475#2 202555475#3 202555475#4 202555475#5 202555475#6 202555475#7 403701947 185494500#0 185494500#1 29036037#0 29036036 29036035#0 185494474 185494482 185494476#1 185494476#0 185494475 29036684#1 29036684#0 185494477 29036683 185494499#0 -185953704#0 29036033#1 29036688#1 29036690"/>
    </person>
    <person id="ped126" type="ped_pedestrian" depart="1021.07">
        <walk edges="-202555478#0 37432216 185992505#0 185992436 185992473 185992491 185992443#0 185992443#1 202491390 185992507 185992457 185992464 185992481 185992459#0 185992459#1 185992432#0 185992432#1 185992432#2 185494494#0 185494494#1 202491389 202491388 185494496 185992484 185992454 185494493#0 185494493#1 185494492 185992485 185992466 185992498 185992462"/>
    </person>
    <person id="ped127" type="ped_pedestrian" depart="1029.18">
        <walk edges="993410868 281967841 34517004#2 34517004#1 591254664 449240482#0 449240482#1 449240482#2 449240482#3 449240482#4 449240484 449240485 -23320724#0 -169224407#2 98502157 98502152"/>
    </person>
    <person id="ped130" type="ped_pedestrian" depart="1053.49">
        <walk edges="401262922#3 401262922#2"/>
    </person>
    <person id="ped131" type="ped_pedestrian" depart="1061.59">
        <walk edges="185494471 185494486 185494473 185494499#1 185494499#0 -185953704#0 -9514888#10 -9514888#9 -9514888#8 29036906#1 29036906#0 29036691#1 404783330 107222601#0"/>
    </person>
    <person id="ped133" type="ped_pedestrian" depart="1077.80">
        <walk edges="202421487 281910435 186029482#1 202555475#7 403701947 185494500#0 185494500#1 29036037#0 29036036 29036035#0 185494474 185494482 185494476#1 185494476#0 185494475 29036684#1 29036684#0 185494477 29036683 185494499#0 -185953704#0 -9514888#10 -9514888#9 9514888#8 9514888#7 9514888#6 9514888#5"/>
    </person>
    <person id="ped134" type="ped_pedestrian" depart="1085.90">
        <walk edges="202499999 29036825#3 29036825#4 29036684#0 185494477 29036683 185494499#0 -185953704#0 -9514888#10 -9514888#9 -9514888#8 -9514888#7 -9514888#6 -9514888#5 -9514888#4 -9514888#3 -9514888#2 202223918 -1267892344"/>
    </person>
    <person id="ped136" type="ped_pedestrian" depart="1102.11">
        <walk edges="202555475#0 202555475#1 202555475#2 202555475#3 202555475#4 202555475#5 202555475#6 202555475#7 403701947 185494500#0 185494500#1 29036037#0 29036036 29036035#0 185494467 185953704#2 29036825#6 -29036694#0 -29036694#1 -16361892#3 29036827 -785383463#1 785383463#2 785383463#3 449240482#0 46165358#0"/>
    </person>
    <person id="ped137" type="ped_pedestrian" depart="1110.21">
        <walk edges="-785383463#1 173830022 173830023#0 449241028#0 449241023#0 449241023#1 449241019 169127798 1036411468 169127863 449240478 449240479#0 449240483#0 -8812305#2 -386831075#1"/>
    </person>
    <person id="ped138" type="ped_pedestrian" depart="1118.32">
        <walk edges="-366030055 169224407#3 -169224407#2 -23320724#0 449240485 449240484 449240482#4 449240483#1 449240483#0 449240479#0 449240478 169127863 1036411468 169127798 449241019 449241023#1 449241023#0 201507896 43709975 16361899#1 403685571 13622240 9514888#6 9514888#7 9514888#8 -9514888#9 -9514888#10 -185953704#0 185494499#0 29036683 185494477 29036684#0 29036684#1 185494475 185494476#0 185494476#1 185494482 185494474 29036035#0 29036036 29036037#0 185494500#1 185494500#0 403701947 202555475#7 186029482#1 281910435 202421488#6 202421488#5 202421488#4 202421488#3 202421488#2 186029484#0 186029495"/>
    </person>
    <person id="ped142" type="ped_pedestrian" depart="1150.73">
        <walk edges="186004306#10 186004306#11 186004306#12 186004306#13 186029486 186029471 -202555475#11 -186037699#1 186033160#2 -185953706#1 186033159 281915930#1 43709974"/>
    </person>
    <person id="ped145" type="ped_pedestrian" depart="1175.04">
        <walk edges="-1104610966 1104610965 -195959129#0 185992459#1 185992432#0 227157188 227157184 29036825#1 29036825#2 29036825#3 29332031"/>
    </person>
    <person id="ped147" type="ped_pedestrian" depart="1191.25">
        <walk edges="29036040#0 403701947 202555475#8 186029469 186029488 186004306#10 186029492"/>
    </person>