<?xml version="1.0" encoding="UTF-8"?>

<!-- generated on 2025-09-23 10:04:10 by Eclipse SUMO netedit Version 1.24.0
-->

<routes xmlns:xsi="http://www.w3.org/2001/XMLSchema-instance" xsi:noNamespaceSchemaLocation="http://sumo.dlr.de/xsd/routes_file.xsd">
    <vType id="pothole" accel="0.1" decel="0.1" sigma="0.1" length="1" width="0.5" height="0.1"  minGap="0.2" maxSpeed="0.1"/>
    <!-- Vehicles, persons and containers (sorted by depart) -->
    <trip id="test" type="pothole" depart="0.00" departPos="stop" color="0,0,0" from="9514888#0" to="9514888#0">
        <stop lane="9514888#0_1" startPos="48.71" endPos="48.71" duration="3600.00"/>
    </trip>
</routes>
