<?xml version="1.0" encoding="UTF-8"?>

<!-- generated on 2024-05-06 16:56:02.547025 by osmWebWizard.py UNKNOWN
<configuration>
    <net-file value="/opt/homebrew/Cellar/sumo/1.19.0/share/sumo/tools/2024-05-06-16-55-56/osm.net.xml.gz"/>
    <output-trip-file value="/opt/homebrew/Cellar/sumo/1.19.0/share/sumo/tools/2024-05-06-16-55-56/osm.pedestrian.trips.xml"/>
    <route-file value="/opt/homebrew/Cellar/sumo/1.19.0/share/sumo/tools/2024-05-06-16-55-56/osm.pedestrian.rou.xml"/>
    <pedestrians value="True"/>
    <prefix value="ped"/>
    <vehicle-class value="pedestrian"/>
    <fringe-factor value="1"/>
    <max-distance value="2000.0"/>
    <insertion-density value="10.0"/>
</configuration>
-->

<routes xmlns:xsi="http://www.w3.org/2001/XMLSchema-instance" xsi:noNamespaceSchemaLocation="http://sumo.dlr.de/xsd/routes_file.xsd">
    <vType id="ped_pedestrian" vClass="pedestrian"/>
    <person id="ped0" depart="0.00" type="ped_pedestrian">
        <walk from="202499353#1" to="-169224407#3"/>
    </person>
    <person id="ped1" depart="8.10" type="ped_pedestrian">
        <walk from="115373685#4" to="115373650#2"/>
    </person>
    <person id="ped2" depart="16.21" type="ped_pedestrian">
        <walk from="29036037#1" to="202555478#0"/>
    </person>
    <person id="ped3" depart="24.31" type="ped_pedestrian">
        <walk from="403685571" to="-26735019"/>
    </person>
    <person id="ped4" depart="32.42" type="ped_pedestrian">
        <walk from="185953711#0" to="-185494489#0"/>
    </person>
    <person id="ped5" depart="40.52" type="ped_pedestrian">
        <walk from="115373649#0" to="186025292#1"/>
    </person>
    <person id="ped6" depart="48.62" type="ped_pedestrian">
        <walk from="-177517492" to="1111016560"/>
    </person>
    <person id="ped7" depart="56.73" type="ped_pedestrian">
        <walk from="202499360" to="186029487#1"/>
    </person>
    <person id="ped8" depart="64.83" type="ped_pedestrian">
        <walk from="115373650#0" to="186033160#2"/>
    </person>
    <person id="ped9" depart="72.93" type="ped_pedestrian">
        <walk from="366030061" to="-1254646407"/>
    </person>
    <person id="ped10" depart="81.04" type="ped_pedestrian">
        <walk from="366025462" to="25973404"/>
    </person>
    <person id="ped11" depart="89.14" type="ped_pedestrian">
        <walk from="16361904#0" to="1035471348"/>
    </person>
    <person id="ped12" depart="97.25" type="ped_pedestrian">
        <walk from="46243669#1" to="16361899#3"/>
    </person>
    <person id="ped13" depart="105.35" type="ped_pedestrian">
        <walk from="-281963714#0" to="-29036040#1"/>
    </person>
    <person id="ped14" depart="113.45" type="ped_pedestrian">
        <walk from="400881352#1" to="201507896"/>
    </person>
    <person id="ped15" depart="121.56" type="ped_pedestrian">
        <walk from="366030059#0" to="29036033#1"/>
    </person>
    <person id="ped16" depart="129.66" type="ped_pedestrian">
        <walk from="186029482#1" to="785383463#1"/>
    </person>
    <person id="ped17" depart="137.76" type="ped_pedestrian">
        <walk from="185494477" to="186029493"/>
    </person>
    <person id="ped18" depart="145.87" type="ped_pedestrian">
        <walk from="39827699" to="202421488#5"/>
    </person>
    <person id="ped19" depart="153.97" type="ped_pedestrian">
        <walk from="400881356#4" to="186032819"/>
    </person>
    <person id="ped20" depart="162.08" type="ped_pedestrian">
        <walk from="274191015" to="-195959128"/>
    </person>
    <person id="ped21" depart="170.18" type="ped_pedestrian">
        <walk from="115373652#2" to="116448781#5"/>
    </person>
    <person id="ped22" depart="178.28" type="ped_pedestrian">
        <walk from="-23439978#1" to="115373659#0"/>
    </person>
    <person id="ped23" depart="186.39" type="ped_pedestrian">
        <walk from="-334923161" to="115373686#1"/>
    </person>
    <person id="ped24" depart="194.49" type="ped_pedestrian">
        <walk from="202499351#0" to="185494466#1"/>
    </person>
    <person id="ped25" depart="202.59" type="ped_pedestrian">
        <walk from="185494471" to="1113474197#0"/>
    </person>
    <person id="ped26" depart="210.70" type="ped_pedestrian">
        <walk from="115373682#1" to="449241825"/>
    </person>
    <person id="ped27" depart="218.80" type="ped_pedestrian">
        <walk from="202499359" to="202223918"/>
    </person>
    <person id="ped28" depart="226.91" type="ped_pedestrian">
        <walk from="1108004513#3" to="281970525"/>
    </person>
    <person id="ped29" depart="235.01" type="ped_pedestrian">
        <walk from="1104610967" to="185494481"/>
    </person>
    <person id="ped30" depart="243.11" type="ped_pedestrian">
        <walk from="9514888#7" to="202499353#1"/>
    </person>
    <person id="ped31" depart="251.22" type="ped_pedestrian">
        <walk from="186029502" to="227157188"/>
    </person>
    <person id="ped32" depart="259.32" type="ped_pedestrian">
        <walk from="400881350#6" to="32298002#3"/>
    </person>
    <person id="ped33" depart="267.42" type="ped_pedestrian">
        <walk from="115373652#3" to="-185953704#1"/>
    </person>
    <person id="ped34" depart="275.53" type="ped_pedestrian">
        <walk from="1219738104#7" to="115373682#1"/>
    </person>
    <person id="ped35" depart="283.63" type="ped_pedestrian">
        <walk from="1113474197#1" to="46165360#0"/>
    </person>
    <person id="ped36" depart="291.74" type="ped_pedestrian">
        <walk from="401262922#0" to="1219738104#6"/>
    </person>
    <person id="ped37" depart="299.84" type="ped_pedestrian">
        <walk from="202500000" to="185494494#1"/>
    </person>
    <person id="ped38" depart="307.94" type="ped_pedestrian">
        <walk from="449240481#1" to="185992462"/>
    </person>
    <person id="ped39" depart="316.05" type="ped_pedestrian">
        <walk from="115373681#1" to="115373665#3"/>
    </person>
    <person id="ped40" depart="324.15" type="ped_pedestrian">
        <walk from="186030996" to="115373679#1"/>
    </person>
    <person id="ped41" depart="332.25" type="ped_pedestrian">
        <walk from="186032824#1" to="404783330"/>
    </person>
    <person id="ped42" depart="340.36" type="ped_pedestrian">
        <walk from="185494497#0" to="115373649#1"/>
    </person>
    <person id="ped43" depart="348.46" type="ped_pedestrian">
        <walk from="98502157" to="186029460"/>
    </person>
    <person id="ped44" depart="356.57" type="ped_pedestrian">
        <walk from="-281956710#1" to="-195959129#0"/>
    </person>
    <person id="ped45" depart="364.67" type="ped_pedestrian">
        <walk from="-37432224#0" to="202491393#1"/>
    </person>
    <person id="ped46" depart="372.77" type="ped_pedestrian">
        <walk from="33563874" to="185953711#0"/>
    </person>
    <person id="ped47" depart="380.88" type="ped_pedestrian">
        <walk from="-202555475#2" to="185494483"/>
    </person>
    <person id="ped48" depart="388.98" type="ped_pedestrian">
        <walk from="98502152" to="186029478"/>
    </person>
    <person id="ped49" depart="397.08" type="ped_pedestrian">
        <walk from="751383409" to="400881356#4"/>
    </person>
    <person id="ped50" depart="405.19" type="ped_pedestrian">
        <walk from="-16361892#1" to="281956712"/>
    </person>
    <person id="ped51" depart="413.29" type="ped_pedestrian">
        <walk from="205275738" to="186029482#1"/>
    </person>
    <person id="ped52" depart="421.40" type="ped_pedestrian">
        <walk from="115373682#0" to="202499354"/>
    </person>
    <person id="ped53" depart="429.50" type="ped_pedestrian">
        <walk from="-37432224#1" to="185957518"/>
    </person>
    <person id="ped54" depart="437.60" type="ped_pedestrian">
        <walk from="185992454" to="46165365"/>
    </person>
    <person id="ped55" depart="445.71" type="ped_pedestrian">
        <walk from="401262921" to="115373681#0"/>
    </person>
    <person id="ped56" depart="453.81" type="ped_pedestrian">
        <walk from="186004306#7" to="1108004517"/>
    </person>
    <person id="ped57" depart="461.91" type="ped_pedestrian">
        <walk from="449240481#0" to="400881357#3"/>
    </person>
    <person id="ped58" depart="470.02" type="ped_pedestrian">
        <walk from="117546238#3" to="202499353#0"/>
    </person>
    <person id="ped59" depart="478.12" type="ped_pedestrian">
        <walk from="202223918" to="-9514888#9"/>
    </person>
    <person id="ped60" depart="486.23" type="ped_pedestrian">
        <walk from="29036825#3" to="186029484#0"/>
    </person>
    <person id="ped61" depart="494.33" type="ped_pedestrian">
        <walk from="32298002#5" to="186029479"/>
    </person>
    <person id="ped62" depart="502.43" type="ped_pedestrian">
        <walk from="-107222601#0" to="1219738431#1"/>
    </person>
    <person id="ped63" depart="510.54" type="ped_pedestrian">
        <walk from="-16361899#3" to="449241023#1"/>
    </person>
    <person id="ped64" depart="518.64" type="ped_pedestrian">
        <walk from="401262922#2" to="400881349#0"/>
    </person>
    <person id="ped65" depart="526.74" type="ped_pedestrian">
        <walk from="1219738104#0" to="-202555475#0"/>
    </person>
    <person id="ped66" depart="534.85" type="ped_pedestrian">
        <walk from="401262922#1" to="46165361#1"/>
    </person>
    <person id="ped67" depart="542.95" type="ped_pedestrian">
        <walk from="-262755905" to="186004306#0"/>
    </person>
    <person id="ped68" depart="551.06" type="ped_pedestrian">
        <walk from="-202555475#7" to="29036825#1"/>
    </person>
    <person id="ped69" depart="559.16" type="ped_pedestrian">
        <walk from="29036825#6" to="-60430587"/>
    </person>
    <person id="ped70" depart="567.26" type="ped_pedestrian">
        <walk from="185992495" to="186029491"/>
    </person>
    <person id="ped71" depart="575.37" type="ped_pedestrian">
        <walk from="115373681#1" to="400881358"/>
    </person>
    <person id="ped72" depart="583.47" type="ped_pedestrian">
        <walk from="185953711#1" to="1113474197#2"/>
    </person>
    <person id="ped73" depart="591.57" type="ped_pedestrian">
        <walk from="186029484#0" to="29036033#1"/>
    </person>
    <person id="ped74" depart="599.68" type="ped_pedestrian">
        <walk from="1113474191#0" to="1219738104#4"/>
    </person>
    <person id="ped75" depart="607.78" type="ped_pedestrian">
        <walk from="965511535" to="202499360"/>
    </person>
    <person id="ped76" depart="615.89" type="ped_pedestrian">
        <walk from="185992432#0" to="186029470"/>
    </person>
    <person id="ped77" depart="623.99" type="ped_pedestrian">
        <walk from="-400881358" to="115373651"/>
    </person>
    <person id="ped78" depart="632.09" type="ped_pedestrian">
        <walk from="16361899#4" to="186033160#0"/>
    </person>
    <person id="ped79" depart="640.20" type="ped_pedestrian">
        <walk from="115373657#0" to="115373650#0"/>
    </person>
    <person id="ped80" depart="648.30" type="ped_pedestrian">
        <walk from="-202555475#9" to="202499345#1"/>
    </person>
    <person id="ped81" depart="656.40" type="ped_pedestrian">
        <walk from="115373652#3" to="43709974"/>
    </person>
    <person id="ped82" depart="664.51" type="ped_pedestrian">
        <walk from="400881356#3" to="-202555475#8"/>
    </person>
    <person id="ped83" depart="672.61" type="ped_pedestrian">
        <walk from="115373662#0" to="202555475#3"/>
    </person>
    <person id="ped84" depart="680.72" type="ped_pedestrian">
        <walk from="1113474199" to="-785383463#0"/>
    </person>
    <person id="ped85" depart="688.82" type="ped_pedestrian">
        <walk from="449241824#1" to="186031004#0"/>
    </person>
    <person id="ped86" depart="696.92" type="ped_pedestrian">
        <walk from="185992489" to="32298008"/>
    </person>
    <person id="ped87" depart="705.03" type="ped_pedestrian">
        <walk from="366030059#0" to="1108058937"/>
    </person>
    <person id="ped88" depart="713.13" type="ped_pedestrian">
        <walk from="-29036040#1" to="185953715#0"/>
    </person>
    <person id="ped89" depart="721.23" type="ped_pedestrian">
        <walk from="185953711#1" to="185992477"/>
    </person>
    <person id="ped90" depart="729.34" type="ped_pedestrian">
        <walk from="281970525" to="202555475#7"/>
    </person>
    <person id="ped91" depart="737.44" type="ped_pedestrian">
        <walk from="9514888#2" to="-29036040#2"/>
    </person>
    <person id="ped92" depart="745.55" type="ped_pedestrian">
        <walk from="185494497#2" to="16361902"/>
    </person>
    <person id="ped93" depart="753.65" type="ped_pedestrian">
        <walk from="400881356#4" to="115373666"/>
    </person>
    <person id="ped94" depart="761.75" type="ped_pedestrian">
        <walk from="1108058937" to="185992445"/>
    </person>
    <person id="ped95" depart="769.86" type="ped_pedestrian">
        <walk from="185953711#0" to="115373686#1"/>
    </person>
    <person id="ped96" depart="777.96" type="ped_pedestrian">
        <walk from="115373667" to="449240483#1"/>
    </person>
    <person id="ped97" depart="786.06" type="ped_pedestrian">
        <walk from="185992436" to="400881356#4"/>
    </person>
    <person id="ped98" depart="794.17" type="ped_pedestrian">
        <walk from="186029491" to="-202223915"/>
    </person>
    <person id="ped99" depart="802.27" type="ped_pedestrian">
        <walk from="993410869" to="400881350#0"/>
    </person>
    <person id="ped100" depart="810.38" type="ped_pedestrian">
        <walk from="751383406" to="449240485"/>
    </person>
    <person id="ped101" depart="818.48" type="ped_pedestrian">
        <walk from="400881353#0" to="1104610972"/>
    </person>
    <person id="ped102" depart="826.58" type="ped_pedestrian">
        <walk from="186004306#0" to="1113474198"/>
    </person>
    <person id="ped103" depart="834.69" type="ped_pedestrian">
        <walk from="185494497#1" to="-202555475#0"/>
    </person>
    <person id="ped104" depart="842.79" type="ped_pedestrian">
        <walk from="185494481" to="9514888#3"/>
    </person>
    <person id="ped105" depart="850.89" type="ped_pedestrian">
        <walk from="115373681#1" to="32298008"/>
    </person>
    <person id="ped106" depart="859.00" type="ped_pedestrian">
        <walk from="185992457" to="185953711#0"/>
    </person>
    <person id="ped107" depart="867.10" type="ped_pedestrian">
        <walk from="46243669#1" to="98502152"/>
    </person>
    <person id="ped108" depart="875.21" type="ped_pedestrian">
        <walk from="186029497" to="281910435"/>
    </person>
    <person id="ped109" depart="883.31" type="ped_pedestrian">
        <walk from="1035471346" to="117546238#1"/>
    </person>
    <person id="ped110" depart="891.41" type="ped_pedestrian">
        <walk from="60430588" to="186032820"/>
    </person>
    <person id="ped111" depart="899.52" type="ped_pedestrian">
        <walk from="186029486" to="29036685"/>
    </person>
    <person id="ped112" depart="907.62" type="ped_pedestrian">
        <walk from="-202554621#1" to="186032824#1"/>
    </person>
    <person id="ped113" depart="915.72" type="ped_pedestrian">
        <walk from="186004306#9" to="400881354#1"/>
    </person>
    <person id="ped114" depart="923.83" type="ped_pedestrian">
        <walk from="1036411468" to="46243671"/>
    </person>
    <person id="ped115" depart="931.93" type="ped_pedestrian">
        <walk from="-23439978#1" to="1108004521#1"/>
    </person>
    <person id="ped116" depart="940.04" type="ped_pedestrian">
        <walk from="186050293#0" to="202555475#8"/>
    </person>
    <person id="ped117" depart="948.14" type="ped_pedestrian">
        <walk from="115373659#2" to="-391867836"/>
    </person>
    <person id="ped118" depart="956.24" type="ped_pedestrian">
        <walk from="401262927#1" to="115373665#2"/>
    </person>
    <person id="ped119" depart="964.35" type="ped_pedestrian">
        <walk from="186044035" to="202421488#6"/>
    </person>
    <person id="ped120" depart="972.45" type="ped_pedestrian">
        <walk from="185953707" to="186032824#0"/>
    </person>
    <person id="ped121" depart="980.55" type="ped_pedestrian">
        <walk from="186029474#0" to="449241824#0"/>
    </person>
    <person id="ped122" depart="988.66" type="ped_pedestrian">
        <walk from="1113474192" to="280124335#1"/>
    </person>
    <person id="ped123" depart="996.76" type="ped_pedestrian">
        <walk from="115373662#0" to="185494494#1"/>
    </person>
    <person id="ped124" depart="1004.87" type="ped_pedestrian">
        <walk from="202555475#5" to="117546238#4"/>
    </person>
    <person id="ped125" depart="1012.97" type="ped_pedestrian">
        <walk from="1219738105" to="29036690"/>
    </person>
    <person id="ped126" depart="1021.07" type="ped_pedestrian">
        <walk from="-202555478#0" to="185992462"/>
    </person>
    <person id="ped127" depart="1029.18" type="ped_pedestrian">
        <walk from="993410868" to="98502152"/>
    </person>
    <person id="ped128" depart="1037.28" type="ped_pedestrian">
        <walk from="-202555478#0" to="1113474198"/>
    </person>
    <person id="ped129" depart="1045.38" type="ped_pedestrian">
        <walk from="115373681#1" to="449241028#1"/>
    </person>
    <person id="ped130" depart="1053.49" type="ped_pedestrian">
        <walk from="401262922#3" to="401262922#2"/>
    </person>
    <person id="ped131" depart="1061.59" type="ped_pedestrian">
        <walk from="185494471" to="107222601#0"/>
    </person>
    <person id="ped132" depart="1069.70" type="ped_pedestrian">
        <walk from="400881349#2" to="274191012"/>
    </person>
    <person id="ped133" depart="1077.80" type="ped_pedestrian">
        <walk from="202421487" to="9514888#5"/>
    </person>
    <person id="ped134" depart="1085.90" type="ped_pedestrian">
        <walk from="202499999" to="-1267892344"/>
    </person>
    <person id="ped135" depart="1094.01" type="ped_pedestrian">
        <walk from="37432217#0" to="117546238#4"/>
    </person>
    <person id="ped136" depart="1102.11" type="ped_pedestrian">
        <walk from="202555475#0" to="46165358#0"/>
    </person>
    <person id="ped137" depart="1110.21" type="ped_pedestrian">
        <walk from="-785383463#1" to="-386831075#1"/>
    </person>
    <person id="ped138" depart="1118.32" type="ped_pedestrian">
        <walk from="-366030055" to="186029495"/>
    </person>
    <person id="ped139" depart="1126.42" type="ped_pedestrian">
        <walk from="115373685#2" to="202223901"/>
    </person>
    <person id="ped140" depart="1134.53" type="ped_pedestrian">
        <walk from="281910435" to="1113474192"/>
    </person>
    <person id="ped141" depart="1142.63" type="ped_pedestrian">
        <walk from="202499346#1" to="115373681#0"/>
    </person>
    <person id="ped142" depart="1150.73" type="ped_pedestrian">
        <walk from="186004306#10" to="43709974"/>
    </person>
    <person id="ped143" depart="1158.84" type="ped_pedestrian">
        <walk from="400881351#1" to="-281963711#1"/>
    </person>
    <person id="ped144" depart="1166.94" type="ped_pedestrian">
        <walk from="185953711#1" to="115373686#0"/>
    </person>
    <person id="ped145" depart="1175.04" type="ped_pedestrian">
        <walk from="-1104610966" to="29332031"/>
    </person>
    <person id="ped146" depart="1183.15" type="ped_pedestrian">
        <walk from="202499352#1" to="115373679#0"/>
    </person>
    <person id="ped147" depart="1191.25" type="ped_pedestrian">
        <walk from="29036040#0" to="186029492"/>
    </person>
    <person id="ped148" depart="1199.36" type="ped_pedestrian">
        <walk from="185953714#0" to="-16361892#0"/>
    </person>
    <person id="ped149" depart="1207.46" type="ped_pedestrian">
        <walk from="-205275738" to="401262922#5"/>
    </person>
    <person id="ped150" depart="1215.56" type="ped_pedestrian">
        <walk from="404783339#2" to="186029487#1"/>
    </person>
    <person id="ped151" depart="1223.67" type="ped_pedestrian">
        <walk from="400881349#3" to="186032823"/>
    </person>
    <person id="ped152" depart="1231.77" type="ped_pedestrian">
        <walk from="-9514888#5" to="-60430587"/>
    </person>
    <person id="ped153" depart="1239.87" type="ped_pedestrian">
        <walk from="1219738104#1" to="404783331"/>
    </person>
    <person id="ped154" depart="1247.98" type="ped_pedestrian">
        <walk from="33565000" to="400881356#4"/>
    </person>
    <person id="ped155" depart="1256.08" type="ped_pedestrian">
        <walk from="404783331" to="1113474197#0"/>
    </person>
    <person id="ped156" depart="1264.19" type="ped_pedestrian">
        <walk from="115373667" to="-33563874"/>
    </person>
    <person id="ped157" depart="1272.29" type="ped_pedestrian">
        <walk from="32298004#0" to="401262922#6"/>
    </person>
    <person id="ped158" depart="1280.39" type="ped_pedestrian">
        <walk from="185494500#1" to="202491388"/>
    </person>
    <person id="ped159" depart="1288.50" type="ped_pedestrian">
        <walk from="1035471346" to="449241023#1"/>
    </person>
    <person id="ped160" depart="1296.60" type="ped_pedestrian">
        <walk from="400881356#7" to="8812305#0"/>
    </person>
    <person id="ped161" depart="1304.70" type="ped_pedestrian">
        <walk from="366030062#0" to="401262922#4"/>
    </person>
    <person id="ped162" depart="1312.81" type="ped_pedestrian">
        <walk from="-169224407#3" to="29036037#1"/>
    </person>
    <person id="ped163" depart="1320.91" type="ped_pedestrian">
        <walk from="16361893" to="449241026"/>
    </person>
    <person id="ped164" depart="1329.02" type="ped_pedestrian">
        <walk from="34517004#3" to="400881356#6"/>
    </person>
    <person id="ped165" depart="1337.12" type="ped_pedestrian">
        <walk from="366030062#0" to="115373682#0"/>
    </person>
    <person id="ped166" depart="1345.22" type="ped_pedestrian">
        <walk from="334923160" to="-366030055"/>
    </person>
    <person id="ped167" depart="1353.33" type="ped_pedestrian">
        <walk from="400881358" to="400881356#2"/>
    </person>
    <person id="ped168" depart="1361.43" type="ped_pedestrian">
        <walk from="115373650#2" to="37432217#0"/>
    </person>
    <person id="ped169" depart="1369.53" type="ped_pedestrian">
        <walk from="185992464" to="117546248"/>
    </person>
    <person id="ped170" depart="1377.64" type="ped_pedestrian">
        <walk from="33564817#1" to="115373652#2"/>
    </person>
    <person id="ped171" depart="1385.74" type="ped_pedestrian">
        <walk from="-169224407#2" to="1108058939"/>
    </person>
    <person id="ped172" depart="1393.85" type="ped_pedestrian">
        <walk from="1254646407" to="400881356#7"/>
    </person>
    <person id="ped173" depart="1401.95" type="ped_pedestrian">
        <walk from="60430587" to="115373687#0"/>
    </person>
    <person id="ped174" depart="1410.05" type="ped_pedestrian">
        <walk from="202499354" to="185494497#0"/>
    </person>
    <person id="ped175" depart="1418.16" type="ped_pedestrian">
        <walk from="9514888#1" to="186029482#1"/>
    </person>
    <person id="ped176" depart="1426.26" type="ped_pedestrian">
        <walk from="46165358#0" to="-37432224#4"/>
    </person>
    <person id="ped177" depart="1434.36" type="ped_pedestrian">
        <walk from="751383409" to="1108004517"/>
    </person>
    <person id="ped178" depart="1442.47" type="ped_pedestrian">
        <walk from="51445510" to="115373681#1"/>
    </person>
    <person id="ped179" depart="1450.57" type="ped_pedestrian">
        <walk from="-36774581" to="185957518"/>
    </person>
    <person id="ped180" depart="1458.68" type="ped_pedestrian">
        <walk from="281970525" to="1219738104#5"/>
    </person>
    <person id="ped181" depart="1466.78" type="ped_pedestrian">
        <walk from="202223915" to="186029462"/>
    </person>
    <person id="ped182" depart="1474.88" type="ped_pedestrian">
        <walk from="185494487" to="186031004#4"/>
    </person>
    <person id="ped183" depart="1482.99" type="ped_pedestrian">
        <walk from="115373672" to="274191618#0"/>
    </person>
    <person id="ped184" depart="1491.09" type="ped_pedestrian">
        <walk from="-107222601#1" to="449240485"/>
    </person>
    <person id="ped185" depart="1499.19" type="ped_pedestrian">
        <walk from="186029483" to="281915930#1"/>
    </person>
    <person id="ped186" depart="1507.30" type="ped_pedestrian">
        <walk from="29036040#1" to="202555475#4"/>
    </person>
    <person id="ped187" depart="1515.40" type="ped_pedestrian">
        <walk from="185494466#1" to="-202555475#8"/>
    </person>
    <person id="ped188" depart="1523.51" type="ped_pedestrian">
        <walk from="202555475#1" to="13622240"/>
    </person>
    <person id="ped189" depart="1531.61" type="ped_pedestrian">
        <walk from="1219738104#6" to="400881352#1"/>
    </person>
    <person id="ped190" depart="1539.71" type="ped_pedestrian">
        <walk from="281915930#1" to="117546238#4"/>
    </person>
    <person id="ped191" depart="1547.82" type="ped_pedestrian">
        <walk from="1219738104#2" to="185497404"/>
    </person>
    <person id="ped192" depart="1555.92" type="ped_pedestrian">
        <walk from="185494497#2" to="117546238#0"/>
    </person>
    <person id="ped193" depart="1564.02" type="ped_pedestrian">
        <walk from="-555758425#0" to="185953708"/>
    </person>
    <person id="ped194" depart="1572.13" type="ped_pedestrian">
        <walk from="46165358#1" to="202555478#0"/>
    </person>
    <person id="ped195" depart="1580.23" type="ped_pedestrian">
        <walk from="404783339#1" to="202421488#3"/>
    </person>
    <person id="ped196" depart="1588.34" type="ped_pedestrian">
        <walk from="117546238#5" to="186029489"/>
    </person>
    <person id="ped197" depart="1596.44" type="ped_pedestrian">
        <walk from="-107222601#0" to="116448781#3"/>
    </person>
    <person id="ped198" depart="1604.54" type="ped_pedestrian">
        <walk from="185953714#2" to="186032821"/>
    </person>
    <person id="ped199" depart="1612.65" type="ped_pedestrian">
        <walk from="202499999" to="185992471#1"/>
    </person>
    <person id="ped200" depart="1620.75" type="ped_pedestrian">
        <walk from="185992433" to="1113474198"/>
    </person>
    <person id="ped201" depart="1628.85" type="ped_pedestrian">
        <walk from="185992489" to="404783338"/>
    </person>
    <person id="ped202" depart="1636.96" type="ped_pedestrian">
        <walk from="33565000" to="1108004513#2"/>
    </person>
    <person id="ped203" depart="1645.06" type="ped_pedestrian">
        <walk from="-25973404" to="186029467#1"/>
    </person>
    <person id="ped204" depart="1653.17" type="ped_pedestrian">
        <walk from="202499346#0" to="16361899#1"/>
    </person>
    <person id="ped205" depart="1661.27" type="ped_pedestrian">
        <walk from="37432217#1" to="29036688#1"/>
    </person>
    <person id="ped206" depart="1669.37" type="ped_pedestrian">
        <walk from="202555475#6" to="115373651"/>
    </person>
    <person id="ped207" depart="1677.48" type="ped_pedestrian">
        <walk from="1111016560" to="-169224407#3"/>
    </person>
    <person id="ped208" depart="1685.58" type="ped_pedestrian">
        <walk from="115373665#1" to="185992495"/>
    </person>
    <person id="ped209" depart="1693.68" type="ped_pedestrian">
        <walk from="400881353#0" to="-202555478#0"/>
    </person>
    <person id="ped210" depart="1701.79" type="ped_pedestrian">
        <walk from="185953704#4" to="202491394"/>
    </person>
    <person id="ped211" depart="1709.89" type="ped_pedestrian">
        <walk from="1108330885" to="25973396#1"/>
    </person>
    <person id="ped212" depart="1718.00" type="ped_pedestrian">
        <walk from="186004306#2" to="115373665#0"/>
    </person>
    <person id="ped213" depart="1726.10" type="ped_pedestrian">
        <walk from="202500000" to="-1214438843"/>
    </person>
    <person id="ped214" depart="1734.20" type="ped_pedestrian">
        <walk from="29036688#1" to="29036906#1"/>
    </person>
    <person id="ped215" depart="1742.31" type="ped_pedestrian">
        <walk from="-35822594#1" to="185953711#2"/>
    </person>
    <person id="ped216" depart="1750.41" type="ped_pedestrian">
        <walk from="1108004516#1" to="46243669#2"/>
    </person>
    <person id="ped217" depart="1758.51" type="ped_pedestrian">
        <walk from="186029470" to="-202223901"/>
    </person>
    <person id="ped218" depart="1766.62" type="ped_pedestrian">
        <walk from="115373667" to="400881352#1"/>
    </person>
    <person id="ped219" depart="1774.72" type="ped_pedestrian">
        <walk from="185992459#0" to="34517004#2"/>
    </person>
    <person id="ped220" depart="1782.83" type="ped_pedestrian">
        <walk from="202555475#2" to="9514888#5"/>
    </person>
    <person id="ped221" depart="1790.93" type="ped_pedestrian">
        <walk from="186050293#0" to="46165363#1"/>
    </person>
    <person id="ped222" depart="1799.03" type="ped_pedestrian">
        <walk from="401262927#2" to="202421488#0"/>
    </person>
    <person id="ped223" depart="1807.14" type="ped_pedestrian">
        <walk from="281915930#1" to="186025292#0"/>
    </person>
    <person id="ped224" depart="1815.24" type="ped_pedestrian">
        <walk from="400881349#0" to="186029489"/>
    </person>
    <person id="ped225" depart="1823.34" type="ped_pedestrian">
        <walk from="404783330" to="29036040#2"/>
    </person>
    <person id="ped226" depart="1831.45" type="ped_pedestrian">
        <walk from="185992491" to="115373675#3"/>
    </person>
    <person id="ped227" depart="1839.55" type="ped_pedestrian">
        <walk from="115373665#3" to="202499352#1"/>
    </person>