<?xml version='1.0' encoding='UTF-8'?>
<additional>
  <poly id="pothole0_0" type="pothole" color="#48FF00" fill="1" layer="5" shape="752.54,814.90 752.46,814.94 752.40,814.77 752.48,814.74" />
  <poly id="pothole0_1" type="pothole" color="#FF0000" fill="1" layer="5" shape="786.79,802.57 785.72,803.00 784.86,800.86 785.94,800.43" />
  <poly id="pothole0_2" type="pothole" color="#FFA600" fill="1" layer="5" shape="732.48,823.24 732.32,823.30 732.18,822.97 732.35,822.90" />
  <poly id="pothole1_0" type="pothole" color="#FFA600" fill="1" layer="5" shape="834.23,783.48 833.88,783.61 833.61,782.91 833.96,782.77" />
  <poly id="pothole1_1" type="pothole" color="#FF0000" fill="1" layer="5" shape="834.29,783.42 833.96,783.55 833.71,782.90 834.03,782.77" />
  <poly id="pothole1_2" type="pothole" color="#FFA600" fill="1" layer="5" shape="821.83,788.23 821.48,788.37 821.20,787.65 821.56,787.52" />
  <poly id="pothole2_0" type="pothole" color="#FF0000" fill="1" layer="5" shape="851.06,776.61 851.00,776.64 850.96,776.52 851.01,776.50" />
  <poly id="pothole2_1" type="pothole" color="#48FF00" fill="1" layer="5" shape="852.68,776.52 852.16,776.72 851.75,775.68 852.27,775.47" />
  <poly id="pothole2_2" type="pothole" color="#48FF00" fill="1" layer="5" shape="849.86,777.61 849.35,777.81 848.94,776.78 849.46,776.58" />
  <poly id="pothole3_0" type="pothole" color="#FFA600" fill="1" layer="5" shape="899.09,759.97 897.85,760.43 896.93,757.95 898.17,757.49" />
  <poly id="pothole3_1" type="pothole" color="#FFA600" fill="1" layer="5" shape="874.11,769.00 873.03,769.39 872.24,767.24 873.32,766.85" />
  <poly id="pothole3_2" type="pothole" color="#FFA600" fill="1" layer="5" shape="867.88,770.73 867.30,770.95 866.87,769.79 867.45,769.57" />
  <poly id="pothole4_0" type="pothole" color="#FF0000" fill="1" layer="5" shape="919.40,752.13 918.49,752.46 917.81,750.63 918.73,750.29" />
  <poly id="pothole4_1" type="pothole" color="#48FF00" fill="1" layer="5" shape="925.39,750.06 924.36,750.44 923.59,748.36 924.63,747.98" />
  <poly id="pothole4_2" type="pothole" color="#48FF00" fill="1" layer="5" shape="933.05,746.58 932.59,746.74 932.26,745.83 932.71,745.67" />
  <poly id="pothole5_0" type="pothole" color="#48FF00" fill="1" layer="5" shape="974.05,729.76 973.86,729.84 973.71,729.47 973.89,729.39" />
  <poly id="pothole5_1" type="pothole" color="#FFA600" fill="1" layer="5" shape="961.06,735.58 960.51,735.81 960.05,734.71 960.60,734.48" />
  <poly id="pothole5_2" type="pothole" color="#FF0000" fill="1" layer="5" shape="975.03,729.63 974.61,729.80 974.27,728.97 974.68,728.80" />
  <poly id="pothole6_0" type="pothole" color="#48FF00" fill="1" layer="5" shape="997.12,721.24 996.22,721.58 995.54,719.78 996.44,719.44" />
  <poly id="pothole6_1" type="pothole" color="#FFA600" fill="1" layer="5" shape="996.67,720.70 996.39,720.80 996.19,720.25 996.46,720.15" />
  <poly id="pothole6_2" type="pothole" color="#FFA600" fill="1" layer="5" shape="997.32,721.22 996.37,721.57 995.66,719.68 996.61,719.33" />
  <poly id="pothole7_0" type="pothole" color="#FF0000" fill="1" layer="5" shape="1008.46,717.23 1007.23,717.71 1006.28,715.25 1007.51,714.78" />
  <poly id="pothole7_1" type="pothole" color="#FFA600" fill="1" layer="5" shape="1014.98,713.41 1014.89,713.44 1014.82,713.26 1014.91,713.22" />
  <poly id="pothole7_2" type="pothole" color="#FF0000" fill="1" layer="5" shape="1014.56,713.86 1014.22,713.99 1013.96,713.30 1014.30,713.17" />
  <poly id="pothole8_0" type="pothole" color="#FF0000" fill="1" layer="5" shape="305.12,1046.05 304.77,1045.67 305.55,1044.97 305.90,1045.36" />
  <poly id="pothole8_1" type="pothole" color="#FFA600" fill="1" layer="5" shape="329.54,1074.61 328.59,1073.55 330.71,1071.66 331.66,1072.71" />
  <poly id="pothole8_2" type="pothole" color="#FFA600" fill="1" layer="5" shape="336.69,1081.08 336.41,1080.77 337.04,1080.21 337.32,1080.52" />
  <poly id="pothole9_0" type="pothole" color="#FF0000" fill="1" layer="5" shape="279.36,1047.51 278.67,1048.13 277.42,1046.76 278.11,1046.13" />
  <poly id="pothole9_1" type="pothole" color="#FF0000" fill="1" layer="5" shape="272.31,1053.01 272.03,1053.26 271.52,1052.70 271.80,1052.44" />
  <poly id="pothole9_2" type="pothole" color="#48FF00" fill="1" layer="5" shape="266.95,1057.60 266.81,1057.73 266.56,1057.45 266.70,1057.33" />
  <poly id="pothole10_0" type="pothole" color="#FF0000" fill="1" layer="5" shape="324.86,1012.40 324.05,1012.97 322.92,1011.34 323.73,1010.77" />
  <poly id="pothole10_1" type="pothole" color="#FFA600" fill="1" layer="5" shape="315.72,1017.35 315.60,1017.44 315.44,1017.20 315.55,1017.12" />
  <poly id="pothole10_2" type="pothole" color="#FF0000" fill="1" layer="5" shape="301.78,1028.60 301.09,1029.08 300.12,1027.69 300.81,1027.21" />
  <poly id="pothole11_0" type="pothole" color="#FF0000" fill="1" layer="5" shape="714.24,830.95 714.18,830.98 714.13,830.85 714.19,830.83" />
  <poly id="pothole11_1" type="pothole" color="#48FF00" fill="1" layer="5" shape="715.62,831.22 714.84,831.56 714.17,829.98 714.96,829.65" />
  <poly id="pothole11_2" type="pothole" color="#FFA600" fill="1" layer="5" shape="715.25,830.69 715.05,830.78 714.88,830.37 715.08,830.29" />
  <poly id="pothole12_0" type="pothole" color="#FF0000" fill="1" layer="5" shape="352.81,996.51 351.52,997.24 350.06,994.66 351.35,993.93" />
  <poly id="pothole12_1" type="pothole" color="#48FF00" fill="1" layer="5" shape="357.34,993.16 356.64,993.55 355.85,992.16 356.55,991.77" />
  <poly id="pothole12_2" type="pothole" color="#FFA600" fill="1" layer="5" shape="340.27,1003.53 339.09,1004.20 337.75,1001.84 338.93,1001.17" />
  <poly id="pothole13_0" type="pothole" color="#48FF00" fill="1" layer="5" shape="385.40,978.11 384.54,978.56 383.66,976.84 384.51,976.40" />
  <poly id="pothole13_1" type="pothole" color="#FF0000" fill="1" layer="5" shape="381.62,979.93 380.86,980.32 380.07,978.80 380.83,978.40" />
  <poly id="pothole13_2" type="pothole" color="#FFA600" fill="1" layer="5" shape="387.81,975.86 387.77,975.88 387.72,975.79 387.77,975.77" />
  <poly id="pothole14_0" type="pothole" color="#FF0000" fill="1" layer="5" shape="442.69,950.99 441.39,951.60 440.16,948.99 441.47,948.38" />
  <poly id="pothole14_1" type="pothole" color="#48FF00" fill="1" layer="5" shape="419.07,961.03 418.60,961.24 418.17,960.32 418.63,960.10" />
  <poly id="pothole14_2" type="pothole" color="#48FF00" fill="1" layer="5" shape="418.61,962.30 417.28,962.93 416.03,960.26 417.36,959.64" />
  <poly id="pothole15_0" type="pothole" color="#FF0000" fill="1" layer="5" shape="468.58,937.35 468.44,937.42 468.31,937.14 468.45,937.07" />
  <poly id="pothole15_1" type="pothole" color="#FFA600" fill="1" layer="5" shape="459.87,941.57 459.65,941.67 459.44,941.23 459.66,941.13" />
  <poly id="pothole15_2" type="pothole" color="#FF0000" fill="1" layer="5" shape="466.83,938.50 466.43,938.69 466.05,937.88 466.46,937.69" />
  <poly id="pothole16_0" type="pothole" color="#FFA600" fill="1" layer="5" shape="529.84,910.17 529.50,910.32 529.20,909.64 529.54,909.50" />
  <poly id="pothole16_1" type="pothole" color="#FFA600" fill="1" layer="5" shape="511.78,918.19 511.46,918.33 511.18,917.69 511.50,917.55" />
  <poly id="pothole16_2" type="pothole" color="#FFA600" fill="1" layer="5" shape="496.77,925.62 495.83,926.03 495.00,924.15 495.94,923.74" />
  <poly id="pothole17_0" type="pothole" color="#48FF00" fill="1" layer="5" shape="577.38,889.59 577.16,889.68 576.98,889.26 577.20,889.16" />
  <poly id="pothole17_1" type="pothole" color="#48FF00" fill="1" layer="5" shape="582.51,888.18 581.65,888.54 580.92,886.83 581.78,886.46" />
  <poly id="pothole17_2" type="pothole" color="#FFA600" fill="1" layer="5" shape="584.82,886.36 584.68,886.42 584.56,886.13 584.70,886.07" />
  <poly id="pothole18_0" type="pothole" color="#FF0000" fill="1" layer="5" shape="624.07,870.57 622.78,871.14 621.64,868.57 622.92,867.99" />
  <poly id="pothole18_1" type="pothole" color="#FF0000" fill="1" layer="5" shape="627.19,868.09 626.82,868.25 626.49,867.51 626.86,867.34" />
  <poly id="pothole18_2" type="pothole" color="#FF0000" fill="1" layer="5" shape="623.44,869.58 623.21,869.68 623.01,869.23 623.24,869.12" />
  <poly id="pothole19_0" type="pothole" color="#FF0000" fill="1" layer="5" shape="669.04,850.72 668.34,851.02 667.75,849.62 668.45,849.33" />
  <poly id="pothole19_1" type="pothole" color="#48FF00" fill="1" layer="5" shape="653.08,856.98 652.77,857.11 652.51,856.49 652.82,856.36" />
  <poly id="pothole19_2" type="pothole" color="#FFA600" fill="1" layer="5" shape="678.21,846.78 677.58,847.05 677.05,845.79 677.68,845.52" />
  <poly id="pothole20_0" type="pothole" color="#FF0000" fill="1" layer="5" shape="1029.64,703.63 1030.66,703.34 1031.25,705.37 1030.23,705.67" />
  <poly id="pothole20_1" type="pothole" color="#FFA600" fill="1" layer="5" shape="1020.65,707.10 1021.28,706.91 1021.64,708.17 1021.02,708.35" />
  <poly id="pothole20_2" type="pothole" color="#48FF00" fill="1" layer="5" shape="1032.12,703.68 1032.52,703.56 1032.76,704.37 1032.35,704.49" />
  <poly id="pothole21_0" type="pothole" color="#48FF00" fill="1" layer="5" shape="757.77,808.58 758.40,808.33 758.91,809.60 758.28,809.85" />
  <poly id="pothole21_1" type="pothole" color="#FFA600" fill="1" layer="5" shape="741.11,814.33 742.44,813.79 743.51,816.46 742.18,816.99" />
  <poly id="pothole21_2" type="pothole" color="#48FF00" fill="1" layer="5" shape="790.90,795.39 791.71,795.06 792.36,796.69 791.55,797.01" />
  <poly id="pothole22_0" type="pothole" color="#FF0000" fill="1" layer="5" shape="832.43,778.94 833.65,778.47 834.58,780.90 833.37,781.37" />
  <poly id="pothole22_1" type="pothole" color="#48FF00" fill="1" layer="5" shape="830.65,779.60 831.88,779.12 832.83,781.59 831.60,782.07" />
  <poly id="pothole22_2" type="pothole" color="#FFA600" fill="1" layer="5" shape="820.76,784.41 821.10,784.27 821.37,784.97 821.02,785.10" />
  <poly id="pothole23_0" type="pothole" color="#FF0000" fill="1" layer="5" shape="847.91,773.68 848.48,773.46 848.93,774.61 848.36,774.84" />
  <poly id="pothole23_1" type="pothole" color="#FFA600" fill="1" layer="5" shape="849.64,772.35 850.79,771.91 851.68,774.19 850.54,774.64" />
  <poly id="pothole23_2" type="pothole" color="#FF0000" fill="1" layer="5" shape="851.14,771.49 852.53,770.95 853.61,773.71 852.22,774.26" />
  <poly id="pothole24_0" type="pothole" color="#48FF00" fill="1" layer="5" shape="883.84,759.58 884.90,759.19 885.68,761.30 884.62,761.69" />
  <poly id="pothole24_1" type="pothole" color="#FFA600" fill="1" layer="5" shape="874.48,762.63 875.89,762.11 876.93,764.93 875.52,765.45" />
  <poly id="pothole24_2" type="pothole" color="#48FF00" fill="1" layer="5" shape="883.33,759.72 884.43,759.31 885.24,761.51 884.14,761.92" />
  <poly id="pothole25_0" type="pothole" color="#FF0000" fill="1" layer="5" shape="926.50,744.20 927.25,743.92 927.81,745.43 927.06,745.71" />
  <poly id="pothole25_1" type="pothole" color="#48FF00" fill="1" layer="5" shape="915.98,747.35 917.38,746.83 918.41,749.63 917.01,750.15" />
  <poly id="pothole25_2" type="pothole" color="#FF0000" fill="1" layer="5" shape="917.09,747.52 917.97,747.20 918.62,748.97 917.74,749.29" />
  <poly id="pothole26_0" type="pothole" color="#FF0000" fill="1" layer="5" shape="954.87,733.79 955.08,733.70 955.26,734.13 955.04,734.22" />
  <poly id="pothole26_1" type="pothole" color="#FFA600" fill="1" layer="5" shape="954.63,733.12 955.50,732.76 956.22,734.50 955.35,734.86" />
  <poly id="pothole26_2" type="pothole" color="#FFA600" fill="1" layer="5" shape="960.36,730.76 961.22,730.40 961.93,732.11 961.07,732.47" />
  <poly id="pothole27_0" type="pothole" color="#FF0000" fill="1" layer="5" shape="1048.51,703.70 1048.86,703.77 1048.73,704.47 1048.38,704.40" />
  <poly id="pothole27_1" type="pothole" color="#FF0000" fill="1" layer="5" shape="1047.98,703.31 1048.61,703.43 1048.37,704.70 1047.74,704.58" />
  <poly id="pothole27_2" type="pothole" color="#FF0000" fill="1" layer="5" shape="1048.05,703.45 1048.57,703.54 1048.37,704.58 1047.86,704.48" />
  <poly id="pothole28_0" type="pothole" color="#FF0000" fill="1" layer="5" shape="1043.23,710.87 1042.50,710.88 1042.48,709.40 1043.22,709.39" />
  <poly id="pothole28_1" type="pothole" color="#48FF00" fill="1" layer="5" shape="1022.02,711.05 1021.86,711.05 1021.85,710.73 1022.01,710.73" />
  <poly id="pothole28_2" type="pothole" color="#FF0000" fill="1" layer="5" shape="1039.31,710.37 1037.86,710.39 1037.82,707.49 1039.27,707.47" />
  <poly id="pothole29_0" type="pothole" color="#48FF00" fill="1" layer="5" shape="994.17,717.27 994.73,717.05 995.17,718.17 994.61,718.39" />
  <poly id="pothole29_1" type="pothole" color="#FFA600" fill="1" layer="5" shape="993.75,716.89 994.79,716.49 995.59,718.55 994.55,718.95" />
  <poly id="pothole29_2" type="pothole" color="#48FF00" fill="1" layer="5" shape="993.82,716.95 994.78,716.57 995.52,718.49 994.56,718.87" />
  <poly id="pothole30_0" type="pothole" color="#FF0000" fill="1" layer="5" shape="1014.09,709.68 1014.55,709.50 1014.91,710.43 1014.45,710.61" />
  <poly id="pothole30_1" type="pothole" color="#48FF00" fill="1" layer="5" shape="1016.31,709.09 1016.54,709.00 1016.72,709.47 1016.49,709.56" />
  <poly id="pothole30_2" type="pothole" color="#48FF00" fill="1" layer="5" shape="1002.04,713.92 1002.86,713.61 1003.49,715.25 1002.67,715.57" />
  <poly id="pothole31_0" type="pothole" color="#48FF00" fill="1" layer="5" shape="332.99,1069.85 333.74,1070.69 332.06,1072.20 331.31,1071.36" />
  <poly id="pothole31_1" type="pothole" color="#FFA600" fill="1" layer="5" shape="334.23,1072.25 334.52,1072.58 333.86,1073.18 333.56,1072.85" />
  <poly id="pothole31_2" type="pothole" color="#48FF00" fill="1" layer="5" shape="348.56,1086.92 349.44,1087.90 347.48,1089.66 346.60,1088.68" />
  <poly id="pothole32_0" type="pothole" color="#48FF00" fill="1" layer="5" shape="260.96,1057.84 261.30,1057.52 261.93,1058.21 261.58,1058.53" />
  <poly id="pothole32_1" type="pothole" color="#48FF00" fill="1" layer="5" shape="276.85,1042.89 277.60,1042.22 278.95,1043.71 278.20,1044.38" />
  <poly id="pothole32_2" type="pothole" color="#FFA600" fill="1" layer="5" shape="275.56,1044.20 276.21,1043.61 277.39,1044.91 276.74,1045.50" />
  <poly id="pothole33_0" type="pothole" color="#FF0000" fill="1" layer="5" shape="298.92,1025.46 299.05,1025.36 299.24,1025.63 299.11,1025.72" />
  <poly id="pothole33_1" type="pothole" color="#FF0000" fill="1" layer="5" shape="321.77,1008.43 322.49,1007.94 323.48,1009.36 322.77,1009.86" />
  <poly id="pothole33_2" type="pothole" color="#48FF00" fill="1" layer="5" shape="313.66,1014.39 313.88,1014.23 314.19,1014.68 313.97,1014.83" />
  <poly id="pothole34_0" type="pothole" color="#FF0000" fill="1" layer="5" shape="712.44,826.65 713.73,826.11 714.81,828.69 713.52,829.23" />
  <poly id="pothole34_1" type="pothole" color="#48FF00" fill="1" layer="5" shape="714.65,825.72 715.94,825.18 717.02,827.76 715.73,828.30" />
  <poly id="pothole34_2" type="pothole" color="#FF0000" fill="1" layer="5" shape="713.22,827.62 713.41,827.54 713.56,827.91 713.38,827.99" />
  <poly id="pothole35_0" type="pothole" color="#FFA600" fill="1" layer="5" shape="358.50,987.17 359.08,986.84 359.73,987.99 359.15,988.32" />
  <poly id="pothole35_1" type="pothole" color="#FF0000" fill="1" layer="5" shape="337.79,998.04 339.04,997.32 340.47,999.84 339.21,1000.55" />
  <poly id="pothole35_2" type="pothole" color="#FF0000" fill="1" layer="5" shape="360.47,985.37 361.57,984.75 362.82,986.95 361.72,987.57" />
  <poly id="pothole36_0" type="pothole" color="#FFA600" fill="1" layer="5" shape="371.92,979.19 372.95,978.66 374.01,980.71 372.98,981.24" />
  <poly id="pothole36_1" type="pothole" color="#FF0000" fill="1" layer="5" shape="399.07,965.05 400.18,964.48 401.33,966.70 400.22,967.28" />
  <poly id="pothole36_2" type="pothole" color="#FF0000" fill="1" layer="5" shape="396.18,967.43 396.58,967.22 396.99,968.02 396.59,968.23" />
  <poly id="pothole37_0" type="pothole" color="#FF0000" fill="1" layer="5" shape="414.38,957.62 415.61,957.05 416.76,959.51 415.53,960.08" />
  <poly id="pothole37_1" type="pothole" color="#FFA600" fill="1" layer="5" shape="417.66,956.18 418.82,955.64 419.90,957.94 418.75,958.48" />
  <poly id="pothole37_2" type="pothole" color="#48FF00" fill="1" layer="5" shape="420.02,955.11 421.14,954.58 422.20,956.83 421.07,957.36" />
  <poly id="pothole38_0" type="pothole" color="#FFA600" fill="1" layer="5" shape="451.36,941.39 451.67,941.25 451.96,941.87 451.65,942.01" />
  <poly id="pothole38_1" type="pothole" color="#48FF00" fill="1" layer="5" shape="476.91,928.24 478.27,927.61 479.53,930.33 478.17,930.96" />
  <poly id="pothole38_2" type="pothole" color="#FF0000" fill="1" layer="5" shape="470.57,932.02 471.16,931.74 471.70,932.92 471.11,933.19" />
  <poly id="pothole39_0" type="pothole" color="#48FF00" fill="1" layer="5" shape="524.60,906.99 525.93,906.40 527.11,909.07 525.78,909.66" />
  <poly id="pothole39_1" type="pothole" color="#FF0000" fill="1" layer="5" shape="551.23,896.59 551.52,896.46 551.78,897.04 551.49,897.17" />
  <poly id="pothole39_2" type="pothole" color="#FFA600" fill="1" layer="5" shape="509.73,914.99 509.92,914.90 510.09,915.29 509.90,915.37" />
  <poly id="pothole40_0" type="pothole" color="#FFA600" fill="1" layer="5" shape="581.70,883.46 582.18,883.26 582.59,884.22 582.11,884.42" />
  <poly id="pothole40_1" type="pothole" color="#FFA600" fill="1" layer="5" shape="576.13,885.71 576.71,885.46 577.20,886.62 576.62,886.86" />
  <poly id="pothole40_2" type="pothole" color="#48FF00" fill="1" layer="5" shape="569.24,888.10 570.26,887.66 571.13,889.71 570.10,890.15" />
  <poly id="pothole41_0" type="pothole" color="#FF0000" fill="1" layer="5" shape="624.71,864.30 625.50,863.95 626.19,865.52 625.41,865.87" />
  <poly id="pothole41_1" type="pothole" color="#FFA600" fill="1" layer="5" shape="619.91,866.21 620.88,865.79 621.73,867.72 620.77,868.14" />
  <poly id="pothole41_2" type="pothole" color="#FFA600" fill="1" layer="5" shape="602.98,873.75 603.93,873.32 604.78,875.23 603.82,875.66" />
  <poly id="pothole42_0" type="pothole" color="#FF0000" fill="1" layer="5" shape="658.44,849.45 659.66,848.94 660.69,851.38 659.47,851.89" />
  <poly id="pothole42_1" type="pothole" color="#FFA600" fill="1" layer="5" shape="658.23,850.42 658.70,850.22 659.10,851.17 658.63,851.37" />
  <poly id="pothole42_2" type="pothole" color="#48FF00" fill="1" layer="5" shape="664.98,847.60 665.44,847.41 665.82,848.32 665.36,848.51" />
</additional>