<?xml version='1.0' encoding='UTF-8'?>
<routes>
  <vType id="pothole0_0_" length="0.0875161328340004" width="0.1750322656680008" height="0.04850410457167669" />
  <trip id="pothole0_0_" type="pothole0_0_" depart="0.00" departPos="stop" color="#48FF00" from="-185953704#0" to="-185953704#0">
    <stop lane="-185953704#0_1" startPos="56.11758821759452" endPos="56.11758821759452" duration="3600.00" />
  </trip>
  <vType id="pothole1_0_" length="1.1547068212460185" width="2.309413642492037" height="0.10473792823920756" />
  <trip id="pothole1_0_" type="pothole1_0_" depart="0.00" departPos="stop" color="#FF0000" from="-185953704#1" to="-185953704#1">
    <stop lane="-185953704#1_1" startPos="7.33172624009966" endPos="7.33172624009966" duration="3600.00" />
  </trip>
  <vType id="pothole2_0_" length="0.18040824894412422" width="0.36081649788824843" height="0.06906905475593786" />
  <trip id="pothole2_0_" type="pothole2_0_" depart="0.00" departPos="stop" color="#FFA600" from="-185953704#2" to="-185953704#2">
    <stop lane="-185953704#2_1" startPos="11.49301788391056" endPos="11.49301788391056" duration="3600.00" />
  </trip>
  <vType id="pothole3_0_" length="0.37795696220540503" width="0.7559139244108101" height="0.08074974033447072" />
  <trip id="pothole3_0_" type="pothole3_0_" depart="0.00" departPos="stop" color="#FF0000" from="-185953704#3" to="-185953704#3">
    <stop lane="-185953704#3_1" startPos="2.2992228773652035" endPos="2.2992228773652035" duration="3600.00" />
  </trip>
  <vType id="pothole4_0_" length="0.34825647602997273" width="0.6965129520599455" height="0.10098382128913323" />
  <trip id="pothole4_0_" type="pothole4_0_" depart="0.00" departPos="stop" color="#FF0000" from="-185953704#4" to="-185953704#4">
    <stop lane="-185953704#4_1" startPos="1.8343431637495136" endPos="1.8343431637495136" duration="3600.00" />
  </trip>
  <vType id="pothole5_0_" length="0.38066093306104504" width="0.7613218661220901" height="0.09249719574262721" />
  <trip id="pothole5_0_" type="pothole5_0_" depart="0.00" departPos="stop" color="#FF0000" from="-185953704#5" to="-185953704#5">
    <stop lane="-185953704#5_1" startPos="20.69923547212568" endPos="20.69923547212568" duration="3600.00" />
  </trip>
  <vType id="pothole6_0_" length="0.05974813951709153" width="0.11949627903418306" height="0.12281469525659308" />
  <trip id="pothole6_0_" type="pothole6_0_" depart="0.00" departPos="stop" color="#FF0000" from="-274191618#0" to="-274191618#0">
    <stop lane="-274191618#0_1" startPos="-0.006196914789072382" endPos="-0.006196914789072382" duration="3600.00" />
  </trip>
  <vType id="pothole7_0_" length="0.5603757747769879" width="1.1207515495539757" height="0.031767129973649416" />
  <trip id="pothole7_0_" type="pothole7_0_" depart="0.00" departPos="stop" color="#48FF00" from="-274191618#1" to="-274191618#1">
    <stop lane="-274191618#1_1" startPos="13.651217966579873" endPos="13.651217966579873" duration="3600.00" />
  </trip>
  <vType id="pothole8_0_" length="0.5548918176689401" width="1.1097836353378803" height="0.022984418073220707" />
  <trip id="pothole8_0_" type="pothole8_0_" depart="0.00" departPos="stop" color="#48FF00" from="-60430587" to="-60430587">
    <stop lane="-60430587_0" startPos="75.17429508319798" endPos="75.17429508319798" duration="3600.00" />
  </trip>
  <vType id="pothole9_0_" length="1.3212415495211898" width="2.6424830990423795" height="0.09452164439136473" />
  <trip id="pothole9_0_" type="pothole9_0_" depart="0.00" departPos="stop" color="#FF0000" from="-9514888#0" to="-9514888#0">
    <stop lane="-9514888#0_1" startPos="7.774062954403854" endPos="7.774062954403854" duration="3600.00" />
  </trip>
  <vType id="pothole10_0_" length="1.144597680040727" width="2.289195360081454" height="0.08507193280365809" />
  <trip id="pothole10_0_" type="pothole10_0_" depart="0.00" departPos="stop" color="#FF0000" from="-9514888#1" to="-9514888#1">
    <stop lane="-9514888#1_1" startPos="27.198621516481932" endPos="27.198621516481932" duration="3600.00" />
  </trip>
  <vType id="pothole11_0_" length="0.6178015658125302" width="1.2356031316250604" height="0.08728568837825176" />
  <trip id="pothole11_0_" type="pothole11_0_" depart="0.00" departPos="stop" color="#FF0000" from="-9514888#10" to="-9514888#10">
    <stop lane="-9514888#10_1" startPos="5.532223198576734" endPos="5.532223198576734" duration="3600.00" />
  </trip>
  <vType id="pothole12_0_" length="0.9777796285463691" width="1.9555592570927383" height="0.1306389660435088" />
  <trip id="pothole12_0_" type="pothole12_0_" depart="0.00" departPos="stop" color="#FF0000" from="-9514888#2" to="-9514888#2">
    <stop lane="-9514888#2_1" startPos="27.349727245681567" endPos="27.349727245681567" duration="3600.00" />
  </trip>
  <vType id="pothole13_0_" length="1.1068577543223852" width="2.2137155086447704" height="0.016415413711792712" />
  <trip id="pothole13_0_" type="pothole13_0_" depart="0.00" departPos="stop" color="#48FF00" from="-9514888#3" to="-9514888#3">
    <stop lane="-9514888#3_1" startPos="20.888952221810154" endPos="20.888952221810154" duration="3600.00" />
  </trip>
  <vType id="pothole14_0_" length="0.48408194540316074" width="0.9681638908063215" height="0.021170876769307848" />
  <trip id="pothole14_0_" type="pothole14_0_" depart="0.00" departPos="stop" color="#48FF00" from="-9514888#4" to="-9514888#4">
    <stop lane="-9514888#4_1" startPos="8.309166500656048" endPos="8.309166500656048" duration="3600.00" />
  </trip>
  <vType id="pothole15_0_" length="0.20150214411459366" width="0.4030042882291873" height="0.048916304435412894" />
  <trip id="pothole15_0_" type="pothole15_0_" depart="0.00" departPos="stop" color="#48FF00" from="-9514888#5" to="-9514888#5">
    <stop lane="-9514888#5_1" startPos="9.185578555375873" endPos="9.185578555375873" duration="3600.00" />
  </trip>
  <vType id="pothole16_0_" length="0.5972482684551264" width="1.1944965369102527" height="0.06182533539636357" />
  <trip id="pothole16_0_" type="pothole16_0_" depart="0.00" departPos="stop" color="#FFA600" from="-9514888#6" to="-9514888#6">
    <stop lane="-9514888#6_1" startPos="42.217631811527006" endPos="42.217631811527006" duration="3600.00" />
  </trip>
  <vType id="pothole17_0_" length="0.45046673307367" width="0.90093346614734" height="0.14113164227974914" />
  <trip id="pothole17_0_" type="pothole17_0_" depart="0.00" departPos="stop" color="#FF0000" from="-9514888#7" to="-9514888#7">
    <stop lane="-9514888#7_1" startPos="6.969916150291028" endPos="6.969916150291028" duration="3600.00" />
  </trip>
  <vType id="pothole18_0_" length="0.9636965085004823" width="1.9273930170009645" height="0.03395941074773358" />
  <trip id="pothole18_0_" type="pothole18_0_" depart="0.00" departPos="stop" color="#48FF00" from="-9514888#8" to="-9514888#8">
    <stop lane="-9514888#8_1" startPos="19.361144533203756" endPos="19.361144533203756" duration="3600.00" />
  </trip>
  <vType id="pothole19_0_" length="0.2951037406428926" width="0.5902074812857852" height="0.06312376184607069" />
  <trip id="pothole19_0_" type="pothole19_0_" depart="0.00" departPos="stop" color="#FFA600" from="-9514888#9" to="-9514888#9">
    <stop lane="-9514888#9_1" startPos="53.33844806760744" endPos="53.33844806760744" duration="3600.00" />
  </trip>
  <vType id="pothole20_0_" length="1.0099996397811393" width="2.0199992795622785" height="0.08797296412845046" />
  <trip id="pothole20_0_" type="pothole20_0_" depart="0.00" departPos="stop" color="#FF0000" from="1035471346" to="1035471346">
    <stop lane="1035471346_1" startPos="16.892087922289626" endPos="16.892087922289626" duration="3600.00" />
  </trip>
  <vType id="pothole21_0_" length="1.3142778802847144" width="2.6285557605694287" height="0.11863998761647426" />
  <trip id="pothole21_0_" type="pothole21_0_" depart="0.00" departPos="stop" color="#FF0000" from="185953704#0" to="185953704#0">
    <stop lane="185953704#0_1" startPos="60.96527150339519" endPos="60.96527150339519" duration="3600.00" />
  </trip>
  <vType id="pothole22_0_" length="0.09815036585605665" width="0.1963007317121133" height="0.054163426728271465" />
  <trip id="pothole22_0_" type="pothole22_0_" depart="0.00" departPos="stop" color="#FFA600" from="185953704#1" to="185953704#1">
    <stop lane="185953704#1_1" startPos="6.990582169676896" endPos="6.990582169676896" duration="3600.00" />
  </trip>
  <vType id="pothole23_0_" length="0.3664742653794897" width="0.7329485307589794" height="0.1420073600069076" />
  <trip id="pothole23_0_" type="pothole23_0_" depart="0.00" departPos="stop" color="#FF0000" from="185953704#2" to="185953704#2">
    <stop lane="185953704#2_1" startPos="4.305095746566439" endPos="4.305095746566439" duration="3600.00" />
  </trip>
  <vType id="pothole24_0_" length="0.5220168211977169" width="1.0440336423954337" height="0.10176141314128319" />
  <trip id="pothole24_0_" type="pothole24_0_" depart="0.00" departPos="stop" color="#FF0000" from="185953704#3" to="185953704#3">
    <stop lane="185953704#3_1" startPos="33.9144661729705" endPos="33.9144661729705" duration="3600.00" />
  </trip>
  <vType id="pothole25_0_" length="1.4218213846108154" width="2.843642769221631" height="0.07423925936223583" />
  <trip id="pothole25_0_" type="pothole25_0_" depart="0.00" departPos="stop" color="#FFA600" from="185953704#4" to="185953704#4">
    <stop lane="185953704#4_1" startPos="11.554232390694734" endPos="11.554232390694734" duration="3600.00" />
  </trip>
  <vType id="pothole26_0_" length="0.41994126154097516" width="0.8398825230819503" height="0.0885915387828411" />
  <trip id="pothole26_0_" type="pothole26_0_" depart="0.00" departPos="stop" color="#FF0000" from="185953704#5" to="185953704#5">
    <stop lane="185953704#5_1" startPos="10.692680591400764" endPos="10.692680591400764" duration="3600.00" />
  </trip>
  <vType id="pothole27_0_" length="0.9268789853353108" width="1.8537579706706215" height="0.13569520370434676" />
  <trip id="pothole27_0_" type="pothole27_0_" depart="0.00" departPos="stop" color="#FF0000" from="186037693#0" to="186037693#0">
    <stop lane="186037693#0_0" startPos="1.634221538207563" endPos="1.634221538207563" duration="3600.00" />
  </trip>
  <vType id="pothole28_0_" length="0.378981138735925" width="0.75796227747185" height="0.14965526490931544" />
  <trip id="pothole28_0_" type="pothole28_0_" depart="0.00" departPos="stop" color="#FF0000" from="186037695" to="186037695">
    <stop lane="186037695_1" startPos="10.471558308830794" endPos="10.471558308830794" duration="3600.00" />
  </trip>
  <vType id="pothole29_0_" length="0.18636411826069083" width="0.37272823652138165" height="0.01659629255946284" />
  <trip id="pothole29_0_" type="pothole29_0_" depart="0.00" departPos="stop" color="#48FF00" from="274191618#0" to="274191618#0">
    <stop lane="274191618#0_1" startPos="0.44098840322447075" endPos="0.44098840322447075" duration="3600.00" />
  </trip>
  <vType id="pothole30_0_" length="0.9911690625546351" width="1.9823381251092702" height="0.12089111101081496" />
  <trip id="pothole30_0_" type="pothole30_0_" depart="0.00" departPos="stop" color="#FF0000" from="274191618#1" to="274191618#1">
    <stop lane="274191618#1_1" startPos="3.438567121090998" endPos="3.438567121090998" duration="3600.00" />
  </trip>
  <vType id="pothole31_0_" length="0.14529155922793568" width="0.29058311845587137" height="0.06342670011091514" />
  <trip id="pothole31_0_" type="pothole31_0_" depart="0.00" departPos="stop" color="#FFA600" from="60430587" to="60430587">
    <stop lane="60430587_0" startPos="33.66339521654958" endPos="33.66339521654958" duration="3600.00" />
  </trip>
  <vType id="pothole32_0_" length="0.8436715176487055" width="1.687343035297411" height="0.14595097286590653" />
  <trip id="pothole32_0_" type="pothole32_0_" depart="0.00" departPos="stop" color="#FF0000" from="9514888#0" to="9514888#0">
    <stop lane="9514888#0_1" startPos="64.7153882592801" endPos="64.7153882592801" duration="3600.00" />
  </trip>
  <vType id="pothole33_0_" length="0.06722153291422946" width="0.1344430658284589" height="0.11090105471042723" />
  <trip id="pothole33_0_" type="pothole33_0_" depart="0.00" departPos="stop" color="#FF0000" from="9514888#1" to="9514888#1">
    <stop lane="9514888#1_1" startPos="28.81097175756437" endPos="28.81097175756437" duration="3600.00" />
  </trip>
  <vType id="pothole34_0_" length="0.8554554956131928" width="1.7109109912263856" height="0.04735552659335599" />
  <trip id="pothole34_0_" type="pothole34_0_" depart="0.00" departPos="stop" color="#48FF00" from="9514888#10" to="9514888#10">
    <stop lane="9514888#10_1" startPos="4.386350749381931" endPos="4.386350749381931" duration="3600.00" />
  </trip>
  <vType id="pothole35_0_" length="0.21732826039381464" width="0.4346565207876293" height="0.07086713509367469" />
  <trip id="pothole35_0_" type="pothole35_0_" depart="0.00" departPos="stop" color="#FFA600" from="9514888#2" to="9514888#2">
    <stop lane="9514888#2_1" startPos="21.30537040344666" endPos="21.30537040344666" duration="3600.00" />
  </trip>
  <vType id="pothole36_0_" length="1.4807238912816203" width="2.9614477825632406" height="0.13261941165294716" />
  <trip id="pothole36_0_" type="pothole36_0_" depart="0.00" departPos="stop" color="#FF0000" from="9514888#3" to="9514888#3">
    <stop lane="9514888#3_1" startPos="17.09437216782116" endPos="17.09437216782116" duration="3600.00" />
  </trip>
  <vType id="pothole37_0_" length="0.8008791695754476" width="1.6017583391508952" height="0.03501126327421839" />
  <trip id="pothole37_0_" type="pothole37_0_" depart="0.00" departPos="stop" color="#48FF00" from="9514888#4" to="9514888#4">
    <stop lane="9514888#4_1" startPos="9.568134048579049" endPos="9.568134048579049" duration="3600.00" />
  </trip>
  <vType id="pothole38_0_" length="1.3557778547551504" width="2.711555709510301" height="0.0517822708028086" />
  <trip id="pothole38_0_" type="pothole38_0_" depart="0.00" departPos="stop" color="#FFA600" from="9514888#5" to="9514888#5">
    <stop lane="9514888#5_1" startPos="33.47384285015112" endPos="33.47384285015112" duration="3600.00" />
  </trip>
  <vType id="pothole39_0_" length="0.9634553171572585" width="1.926910634314517" height="0.03139749759694887" />
  <trip id="pothole39_0_" type="pothole39_0_" depart="0.00" departPos="stop" color="#48FF00" from="9514888#6" to="9514888#6">
    <stop lane="9514888#6_1" startPos="42.68119108753864" endPos="42.68119108753864" duration="3600.00" />
  </trip>
  <vType id="pothole40_0_" length="0.8590685451794386" width="1.7181370903588773" height="0.11900770700827813" />
  <trip id="pothole40_0_" type="pothole40_0_" depart="0.00" departPos="stop" color="#FF0000" from="9514888#7" to="9514888#7">
    <stop lane="9514888#7_1" startPos="22.337580410650368" endPos="22.337580410650368" duration="3600.00" />
  </trip>
  <vType id="pothole41_0_" length="0.05085784419191526" width="0.10171568838383052" height="0.05538184798065423" />
  <trip id="pothole41_0_" type="pothole41_0_" depart="0.00" departPos="stop" color="#FFA600" from="9514888#8" to="9514888#8">
    <stop lane="9514888#8_1" startPos="15.657886737960904" endPos="15.657886737960904" duration="3600.00" />
  </trip>
  <vType id="pothole42_0_" length="1.4436479243969258" width="2.8872958487938516" height="0.1330210628952458" />
  <trip id="pothole42_0_" type="pothole42_0_" depart="0.00" departPos="stop" color="#FF0000" from="9514888#9" to="9514888#9">
    <stop lane="9514888#9_1" startPos="3.115579647328622" endPos="3.115579647328622" duration="3600.00" />
  </trip>
</routes>