<?xml version="1.0" encoding="UTF-8"?>

<!-- generated on 2026-01-04 16:39:35 by Eclipse SUMO duarouter Version 1.24.0
<duarouterConfiguration xmlns:xsi="http://www.w3.org/2001/XMLSchema-instance" xsi:noNamespaceSchemaLocation="http://sumo.dlr.de/xsd/duarouterConfiguration.xsd">

    <input>
        <net-file value="output/net.net.xml"/>
        <route-files value="output/gps.rout.xml"/>
    </input>

    <output>
        <output-file value="output/gpsTrack.rou.xml"/>
    </output>

    <processing>
        <remove-loops value="true"/>
        <repair value="true"/>
    </processing>

</duarouterConfiguration>
-->

<routes xmlns:xsi="http://www.w3.org/2001/XMLSchema-instance" xsi:noNamespaceSchemaLocation="http://sumo.dlr.de/xsd/routes_file.xsd">
    <vehicle id="veh1" depart="0.00">
        <route edges="-11853299#10 -11853299#9 -11853299#8 -11853299#7 -11853299#6 -11853299#5 -11853299#4 -11853299#3 -11853299#2 -11853299#1 -11853299#0 -1022429031#6 -1022429031#5 -1022429031#4 -1022429031#3 -1022429031#2 -1022429031#1 -1022429031#0 -355812455#4 -355812455#3 -355812455#2 -355812455#1 -355812455#0 -293019681#5 -293019681#4 -293019681#3 -293019681#2 -293019681#1 -293019681#0 -331173873#8 -331173873#7 -331173873#6 -331173873#5 -331173873#4 -331173873#3 -331173873#2 -331173873#1 -331173873#0 -346964424#12 -346964424#11 -346964424#10 -346964424#9 -346964424#8 -346964424#7 -346964424#6 -346964424#5 -346964424#4 -346964424#3 -346964424#2 -346964424#1 -346964424#0 -346964423#5 -346964423#4 -346964423#3 -346964423#2 -346964423#1 -346964423#0 -11955884#4 -11955884#3 -11955884#2 -11955884#1 -11955884#0 11805275#0 11805275#1 11805275#2 11805275#3 11805275#4 11805275#5 1022429027 -265895121#1 -265895121#0 -1022429025 -1022429026#1 -1022429026#0 -11826990#7 -11826990#6 -11826990#5 121054524#0 121054524#1 121054524#2 121054524#3 121054524#4 121054524#5 -294921206#3 -294921206#2 -294921206#1 -294921206#0
          11720583#0 11720583#1 473677822 294921138#0 294921138#1 294921138#2 294921138#3"/>
    </vehicle>
</routes>
