<?xml version="1.0" encoding="UTF-8"?>

<!-- generated on 2026-01-04 16:37:18 by Eclipse SUMO netconvert Version 1.24.0
<netconvertConfiguration xmlns:xsi="http://www.w3.org/2001/XMLSchema-instance" xsi:noNamespaceSchemaLocation="http://sumo.dlr.de/xsd/netconvertConfiguration.xsd">

    <input>
        <type-files value="types_us_city.xml"/>
        <osm-files value="output/map.osm"/>
    </input>

    <output>
        <output-file value="output/net.net.xml"/>
        <output.street-names value="true"/>
    </output>

    <projection>
        <proj.utm value="true"/>
    </projection>

</netconvertConfiguration>
-->

<net version="1.20" junctionCornerDetail="5" limitTurnSpeed="5.50" xmlns:xsi="http://www.w3.org/2001/XMLSchema-instance" xsi:noNamespaceSchemaLocation="http://sumo.dlr.de/xsd/net_file.xsd">

    <location netOffset="-588658.09,-4477546.01" convBoundary="0.00,0.00,1145.62,1270.29" origBoundary="-79.954559,40.443765,-79.940942,40.455251" projParameter="+proj=utm +zone=17 +ellps=WGS84 +datum=WGS84 +units=m +no_defs"/>

    <type id="highway.busway" priority="1" numLanes="1" speed="27.78" allow="bus" oneway="1"/>
    <type id="highway.footway" priority="1" numLanes="1" speed="2.78" allow="pedestrian" oneway="1" width="2.00"/>
    <type id="highway.pedestrian" priority="1" numLanes="1" speed="2.78" allow="pedestrian" oneway="1" width="2.00"/>
    <type id="highway.primary" priority="12" numLanes="2" speed="13.41" disallow="tram rail_urban rail rail_electric rail_fast ship container cable_car subway aircraft wheelchair scooter drone" oneway="0"/>
    <type id="highway.residential" priority="3" numLanes="1" speed="11.18" disallow="tram rail_urban rail rail_electric rail_fast ship container cable_car subway aircraft wheelchair scooter drone" oneway="0"/>
    <type id="highway.secondary" priority="11" numLanes="1" speed="11.18" disallow="tram rail_urban rail rail_electric rail_fast ship container cable_car subway aircraft wheelchair scooter drone" oneway="0"/>
    <type id="highway.service" priority="1" numLanes="1" speed="5.56" allow="pedestrian delivery bicycle" oneway="0"/>
    <type id="highway.steps" priority="1" numLanes="1" speed="1.39" allow="pedestrian" oneway="1" width="2.00"/>
    <type id="highway.tertiary" priority="10" numLanes="1" speed="11.18" disallow="tram rail_urban rail rail_electric rail_fast ship container cable_car subway aircraft wheelchair scooter drone" oneway="0"/>
    <type id="highway.trunk" priority="13" numLanes="2" speed="27.78" disallow="pedestrian bicycle tram rail_urban rail rail_electric rail_fast ship container cable_car subway aircraft wheelchair scooter drone" oneway="0"/>

    <edge id=":10257970305_0" function="internal">
        <lane id=":10257970305_0_0" index="0" allow="pedestrian delivery bicycle" speed="5.56" length="6.13" shape="289.51,934.07 287.06,939.68"/>
    </edge>
    <edge id=":10257970305_1" function="internal">
        <lane id=":10257970305_1_0" index="0" allow="pedestrian delivery bicycle" speed="3.65" length="1.44" shape="289.51,934.07 288.30,934.85"/>
    </edge>
    <edge id=":10257970305_4" function="internal">
        <lane id=":10257970305_4_0" index="0" allow="pedestrian delivery bicycle" speed="3.65" length="3.23" shape="288.30,934.85 287.41,934.89 286.83,934.21 286.58,932.79"/>
    </edge>
    <edge id=":10257970305_2" function="internal">
        <lane id=":10257970305_2_0" index="0" allow="pedestrian delivery bicycle" speed="5.56" length="6.13" shape="284.13,938.40 286.58,932.79"/>
    </edge>
    <edge id=":10257970305_3" function="internal">
        <lane id=":10257970305_3_0" index="0" allow="pedestrian delivery bicycle" speed="3.65" length="1.44" shape="284.13,938.40 285.34,937.62"/>
    </edge>
    <edge id=":10257970305_5" function="internal">
        <lane id=":10257970305_5_0" index="0" allow="pedestrian delivery bicycle" speed="3.65" length="3.23" shape="285.34,937.62 286.24,937.58 286.81,938.26 287.06,939.68"/>
    </edge>
    <edge id=":10257970306_0" function="internal">
        <lane id=":10257970306_0_0" index="0" allow="pedestrian delivery bicycle" speed="5.56" length="3.28" shape="266.87,927.66 265.63,930.70"/>
    </edge>
    <edge id=":10257970306_1" function="internal">
        <lane id=":10257970306_1_0" index="0" allow="pedestrian delivery bicycle" speed="3.65" length="1.44" shape="266.87,927.66 265.67,928.47"/>
    </edge>
    <edge id=":10257970306_4" function="internal">
        <lane id=":10257970306_4_0" index="0" allow="pedestrian delivery bicycle" speed="3.65" length="3.23" shape="265.67,928.47 264.78,928.54 264.19,927.86 263.90,926.45"/>
    </edge>
    <edge id=":10257970306_2" function="internal">
        <lane id=":10257970306_2_0" index="0" allow="pedestrian delivery bicycle" speed="5.56" length="3.28" shape="262.66,929.49 263.90,926.45"/>
    </edge>
    <edge id=":10257970306_3" function="internal">
        <lane id=":10257970306_3_0" index="0" allow="pedestrian delivery bicycle" speed="3.65" length="1.44" shape="262.66,929.49 263.86,928.68"/>
    </edge>
    <edge id=":10257970306_5" function="internal">
        <lane id=":10257970306_5_0" index="0" allow="pedestrian delivery bicycle" speed="3.65" length="3.23" shape="263.86,928.68 264.75,928.61 265.34,929.29 265.63,930.70"/>
    </edge>
    <edge id=":10258016216_0" function="internal">
        <lane id=":10258016216_0_0" index="0" allow="pedestrian delivery bicycle" speed="5.56" length="5.13" shape="384.70,962.27 386.54,957.48"/>
    </edge>
    <edge id=":10307730379_0" function="internal">
        <lane id=":10307730379_0_0" index="0" disallow="tram rail_urban rail rail_electric rail_fast ship container cable_car subway aircraft wheelchair scooter drone" speed="11.18" length="5.10" shape="421.71,280.27 416.63,279.78"/>
    </edge>
    <edge id=":10307730379_1" function="internal">
        <lane id=":10307730379_1_0" index="0" disallow="tram rail_urban rail rail_electric rail_fast ship container cable_car subway aircraft wheelchair scooter drone" speed="11.18" length="5.30" shape="416.84,276.59 422.11,277.09"/>
    </edge>
    <edge id=":104191960_0" function="internal">
        <lane id=":104191960_0_0" index="0" allow="pedestrian delivery bicycle" speed="5.08" length="5.04" shape="857.74,1018.95 857.41,1020.30 857.58,1021.44 858.25,1022.35 859.43,1023.05"/>
    </edge>
    <edge id=":104191960_1" function="internal">
        <lane id=":104191960_1_0" index="0" allow="pedestrian delivery bicycle" speed="3.65" length="4.67" shape="857.74,1018.95 856.56,1019.77 855.66,1019.85 855.07,1019.18 854.77,1017.77"/>
    </edge>
    <edge id=":104191960_2" function="internal">
        <lane id=":104191960_2_0" index="0" allow="pedestrian delivery bicycle" speed="5.03" length="5.01" shape="850.73,1019.49 852.07,1019.82 853.18,1019.65 854.08,1018.96 854.77,1017.77"/>
    </edge>
    <edge id=":104191960_3" function="internal">
        <lane id=":104191960_3_0" index="0" disallow="tram rail_urban rail rail_electric rail_fast ship container cable_car subway aircraft wheelchair scooter drone" speed="11.18" length="9.39" shape="850.73,1019.49 859.43,1023.05"/>
    </edge>
    <edge id=":104191966_0" function="internal">
        <lane id=":104191966_0_0" index="0" allow="pedestrian delivery bicycle" speed="3.65" length="4.67" shape="874.37,968.18 875.55,967.36 876.44,967.28 877.04,967.95 877.34,969.36"/>
    </edge>
    <edge id=":104383287_0" function="internal">
        <lane id=":104383287_0_0" index="0" allow="pedestrian delivery bicycle" speed="3.65" length="4.67" shape="931.17,1188.77 929.99,1189.59 929.10,1189.67 928.50,1189.00 928.20,1187.59"/>
    </edge>
    <edge id=":104585558_0" function="internal">
        <lane id=":104585558_0_0" index="0" disallow="tram rail_urban rail rail_electric rail_fast ship container cable_car subway aircraft wheelchair scooter drone" speed="3.65" length="4.67" shape="1146.06,841.82 1147.00,842.92 1147.16,843.80 1146.56,844.46 1145.19,844.90"/>
    </edge>
    <edge id=":104663452_0" function="internal">
        <lane id=":104663452_0_0" index="0" disallow="pedestrian bicycle tram rail_urban rail rail_electric rail_fast ship container cable_car subway aircraft wheelchair scooter drone" speed="8.13" length="13.05" shape="343.09,338.10 338.65,338.01 335.30,338.69 333.03,340.13 331.85,342.34"/>
    </edge>
    <edge id=":104663452_1" function="internal">
        <lane id=":104663452_1_0" index="0" disallow="pedestrian bicycle tram rail_urban rail rail_electric rail_fast ship container cable_car subway aircraft wheelchair scooter drone" speed="27.78" length="16.40" shape="343.09,338.10 326.78,336.65"/>
        <lane id=":104663452_1_1" index="1" disallow="pedestrian bicycle tram rail_urban rail rail_electric rail_fast ship container cable_car subway aircraft wheelchair scooter drone" speed="27.78" length="16.40" shape="343.39,334.91 327.04,333.47"/>
    </edge>
    <edge id=":104663452_3" function="internal">
        <lane id=":104663452_3_0" index="0" disallow="pedestrian bicycle tram rail_urban rail rail_electric rail_fast ship container cable_car subway aircraft wheelchair scooter drone" speed="8.84" length="4.70" shape="343.39,334.91 338.82,333.82"/>
    </edge>
    <edge id=":104663452_4" function="internal">
        <lane id=":104663452_4_0" index="0" disallow="pedestrian bicycle tram rail_urban rail rail_electric rail_fast ship container cable_car subway aircraft wheelchair scooter drone" speed="3.65" length="1.44" shape="343.39,334.91 342.27,334.00"/>
    </edge>
    <edge id=":104663452_14" function="internal">
        <lane id=":104663452_14_0" index="0" disallow="pedestrian bicycle tram rail_urban rail rail_electric rail_fast ship container cable_car subway aircraft wheelchair scooter drone" speed="8.84" length="12.85" shape="338.82,333.82 338.71,333.79 335.50,331.45 333.78,327.88 333.54,323.08"/>
    </edge>
    <edge id=":104663452_15" function="internal">
        <lane id=":104663452_15_0" index="0" disallow="pedestrian bicycle tram rail_urban rail rail_electric rail_fast ship container cable_car subway aircraft wheelchair scooter drone" speed="3.65" length="3.23" shape="342.27,334.00 341.95,333.17 342.42,332.41 343.69,331.73"/>
    </edge>
    <edge id=":104663452_5" function="internal">
        <lane id=":104663452_5_0" index="0" disallow="pedestrian bicycle tram rail_urban rail rail_electric rail_fast ship container cable_car subway aircraft wheelchair scooter drone" speed="5.90" length="7.24" shape="339.91,323.67 340.01,325.64 340.72,327.11 342.05,328.08 343.99,328.54"/>
    </edge>
    <edge id=":104663452_6" function="internal">
        <lane id=":104663452_6_0" index="0" disallow="tram rail_urban rail rail_electric rail_fast ship container cable_car subway aircraft wheelchair scooter drone" speed="11.18" length="20.52" shape="339.91,323.67 338.43,330.11 335.98,334.92 333.49,338.77 331.85,342.34"/>
    </edge>
    <edge id=":104663452_7" function="internal">
        <lane id=":104663452_7_0" index="0" disallow="pedestrian bicycle tram rail_urban rail rail_electric rail_fast ship container cable_car subway aircraft wheelchair scooter drone" speed="8.46" length="15.85" shape="336.73,323.38 335.75,328.06 333.80,331.30 330.90,333.10 327.04,333.47"/>
    </edge>
    <edge id=":104663452_8" function="internal">
        <lane id=":104663452_8_0" index="0" disallow="tram rail_urban rail rail_electric rail_fast ship container cable_car subway aircraft wheelchair scooter drone" speed="3.65" length="1.44" shape="336.73,323.38 335.82,324.50"/>
    </edge>
    <edge id=":104663452_16" function="internal">
        <lane id=":104663452_16_0" index="0" disallow="tram rail_urban rail rail_electric rail_fast ship container cable_car subway aircraft wheelchair scooter drone" speed="3.65" length="3.23" shape="335.82,324.50 334.98,324.82 334.23,324.35 333.54,323.08"/>
    </edge>
    <edge id=":104663452_9" function="internal">
        <lane id=":104663452_9_0" index="0" disallow="pedestrian bicycle tram rail_urban rail rail_electric rail_fast ship container cable_car subway aircraft wheelchair scooter drone" speed="6.24" length="8.16" shape="327.56,327.09 330.02,327.01 331.84,326.31 333.01,325.00 333.54,323.08"/>
    </edge>
    <edge id=":104663452_10" function="internal">
        <lane id=":104663452_10_0" index="0" disallow="pedestrian bicycle tram rail_urban rail rail_electric rail_fast ship container cable_car subway aircraft wheelchair scooter drone" speed="27.78" length="16.47" shape="327.56,327.09 343.99,328.54"/>
        <lane id=":104663452_10_1" index="1" disallow="pedestrian bicycle tram rail_urban rail rail_electric rail_fast ship container cable_car subway aircraft wheelchair scooter drone" speed="27.78" length="16.47" shape="327.30,330.28 343.69,331.73"/>
    </edge>
    <edge id=":104663452_12" function="internal">
        <lane id=":104663452_12_0" index="0" disallow="pedestrian bicycle tram rail_urban rail rail_electric rail_fast ship container cable_car subway aircraft wheelchair scooter drone" speed="7.78" length="3.02" shape="327.30,330.28 330.18,331.20"/>
    </edge>
    <edge id=":104663452_13" function="internal">
        <lane id=":104663452_13_0" index="0" disallow="pedestrian bicycle tram rail_urban rail rail_electric rail_fast ship container cable_car subway aircraft wheelchair scooter drone" speed="3.65" length="1.44" shape="327.30,330.28 328.43,331.17"/>
    </edge>
    <edge id=":104663452_17" function="internal">
        <lane id=":104663452_17_0" index="0" disallow="pedestrian bicycle tram rail_urban rail rail_electric rail_fast ship container cable_car subway aircraft wheelchair scooter drone" speed="7.78" length="11.95" shape="330.18,331.20 330.35,331.26 332.12,333.59 332.62,337.29 331.85,342.34"/>
    </edge>
    <edge id=":104663452_18" function="internal">
        <lane id=":104663452_18_0" index="0" disallow="pedestrian bicycle tram rail_urban rail rail_electric rail_fast ship container cable_car subway aircraft wheelchair scooter drone" speed="3.65" length="3.23" shape="328.43,331.17 328.77,332.00 328.30,332.77 327.04,333.47"/>
    </edge>
    <edge id=":104663459_0" function="internal">
        <lane id=":104663459_0_0" index="0" disallow="tram rail_urban rail rail_electric rail_fast ship container cable_car subway aircraft wheelchair scooter drone" speed="11.18" length="9.26" shape="224.71,578.54 218.00,572.16"/>
    </edge>
    <edge id=":104663459_1" function="internal">
        <lane id=":104663459_1_0" index="0" disallow="tram rail_urban rail rail_electric rail_fast ship container cable_car subway aircraft wheelchair scooter drone" speed="3.65" length="1.44" shape="224.71,578.54 224.38,577.13"/>
    </edge>
    <edge id=":104663459_6" function="internal">
        <lane id=":104663459_6_0" index="0" disallow="tram rail_urban rail rail_electric rail_fast ship container cable_car subway aircraft wheelchair scooter drone" speed="3.65" length="3.23" shape="224.38,577.13 224.64,576.28 225.48,575.97 226.90,576.20"/>
    </edge>
    <edge id=":104663459_2" function="internal">
        <lane id=":104663459_2_0" index="0" disallow="tram rail_urban rail rail_electric rail_fast ship container cable_car subway aircraft wheelchair scooter drone" speed="6.99" length="8.05" shape="226.12,568.76 225.34,570.97 225.22,572.95 225.74,574.69 226.90,576.20"/>
    </edge>
    <edge id=":104663459_3" function="internal">
        <lane id=":104663459_3_0" index="0" disallow="tram rail_urban rail rail_electric rail_fast ship container cable_car subway aircraft wheelchair scooter drone" speed="6.39" length="10.85" shape="226.12,568.76 224.25,571.86 222.28,573.46 220.19,573.56 218.00,572.16"/>
    </edge>
    <edge id=":104663459_4" function="internal">
        <lane id=":104663459_4_0" index="0" disallow="tram rail_urban rail rail_electric rail_fast ship container cable_car subway aircraft wheelchair scooter drone" speed="11.18" length="9.22" shape="220.22,569.85 226.90,576.20"/>
    </edge>
    <edge id=":104663459_5" function="internal">
        <lane id=":104663459_5_0" index="0" disallow="tram rail_urban rail rail_electric rail_fast ship container cable_car subway aircraft wheelchair scooter drone" speed="3.65" length="1.44" shape="220.22,569.85 220.53,571.26"/>
    </edge>
    <edge id=":104663459_7" function="internal">
        <lane id=":104663459_7_0" index="0" disallow="tram rail_urban rail rail_electric rail_fast ship container cable_car subway aircraft wheelchair scooter drone" speed="3.65" length="3.23" shape="220.53,571.26 220.27,572.11 219.42,572.41 218.00,572.16"/>
    </edge>
    <edge id=":104709701_0" function="internal">
        <lane id=":104709701_0_0" index="0" disallow="tram rail_urban rail rail_electric rail_fast ship container cable_car subway aircraft wheelchair scooter drone" speed="3.65" length="4.67" shape="425.72,1225.23 424.96,1226.46 424.18,1226.89 423.36,1226.52 422.52,1225.35"/>
    </edge>
    <edge id=":104792008_0" function="internal">
        <lane id=":104792008_0_0" index="0" disallow="tram rail_urban rail rail_electric rail_fast ship container cable_car subway aircraft wheelchair scooter drone" speed="3.65" length="4.67" shape="829.07,909.33 827.97,910.26 827.09,910.42 826.43,909.81 826.00,908.44"/>
    </edge>
    <edge id=":104792013_0" function="internal">
        <lane id=":104792013_0_0" index="0" disallow="tram rail_urban rail rail_electric rail_fast ship container cable_car subway aircraft wheelchair scooter drone" speed="6.12" length="7.77" shape="845.86,871.52 843.44,871.13 841.55,871.39 840.20,872.31 839.38,873.88"/>
    </edge>
    <edge id=":104792013_1" function="internal">
        <lane id=":104792013_1_0" index="0" disallow="tram rail_urban rail rail_electric rail_fast ship container cable_car subway aircraft wheelchair scooter drone" speed="11.18" length="14.35" shape="845.86,871.52 832.04,867.63"/>
    </edge>
    <edge id=":104792013_2" function="internal">
        <lane id=":104792013_2_0" index="0" disallow="tram rail_urban rail rail_electric rail_fast ship container cable_car subway aircraft wheelchair scooter drone" speed="3.65" length="1.44" shape="845.86,871.52 844.91,870.44"/>
    </edge>
    <edge id=":104792013_9" function="internal">
        <lane id=":104792013_9_0" index="0" disallow="tram rail_urban rail rail_electric rail_fast ship container cable_car subway aircraft wheelchair scooter drone" speed="3.65" length="3.23" shape="844.91,870.44 844.73,869.56 845.32,868.89 846.69,868.43"/>
    </edge>
    <edge id=":104792013_3" function="internal">
        <lane id=":104792013_3_0" index="0" disallow="tram rail_urban rail rail_electric rail_fast ship container cable_car subway aircraft wheelchair scooter drone" speed="11.18" length="14.29" shape="832.94,864.56 846.69,868.43"/>
    </edge>
    <edge id=":104792013_4" function="internal">
        <lane id=":104792013_4_0" index="0" disallow="tram rail_urban rail rail_electric rail_fast ship container cable_car subway aircraft wheelchair scooter drone" speed="7.65" length="4.26" shape="832.94,864.56 836.50,866.07 836.79,866.33"/>
    </edge>
    <edge id=":104792013_5" function="internal">
        <lane id=":104792013_5_0" index="0" disallow="tram rail_urban rail rail_electric rail_fast ship container cable_car subway aircraft wheelchair scooter drone" speed="3.65" length="1.44" shape="832.94,864.56 833.86,865.67"/>
    </edge>
    <edge id=":104792013_10" function="internal">
        <lane id=":104792013_10_0" index="0" disallow="tram rail_urban rail rail_electric rail_fast ship container cable_car subway aircraft wheelchair scooter drone" speed="7.65" length="8.62" shape="836.79,866.33 838.76,868.13 839.72,870.73 839.38,873.88"/>
    </edge>
    <edge id=":104792013_11" function="internal">
        <lane id=":104792013_11_0" index="0" disallow="tram rail_urban rail rail_electric rail_fast ship container cable_car subway aircraft wheelchair scooter drone" speed="3.65" length="3.23" shape="833.86,865.67 834.02,866.55 833.42,867.20 832.04,867.63"/>
    </edge>
    <edge id=":104792013_6" function="internal">
        <lane id=":104792013_6_0" index="0" disallow="tram rail_urban rail rail_electric rail_fast ship container cable_car subway aircraft wheelchair scooter drone" speed="6.08" length="7.74" shape="836.30,872.99 836.45,871.23 835.79,869.76 834.32,868.56 832.04,867.63"/>
    </edge>
    <edge id=":104792013_7" function="internal">
        <lane id=":104792013_7_0" index="0" disallow="tram rail_urban rail rail_electric rail_fast ship container cable_car subway aircraft wheelchair scooter drone" speed="7.69" length="12.84" shape="836.30,872.99 837.70,870.14 839.89,868.44 842.89,867.87 846.69,868.43"/>
    </edge>
    <edge id=":104792013_8" function="internal">
        <lane id=":104792013_8_0" index="0" disallow="tram rail_urban rail rail_electric rail_fast ship container cable_car subway aircraft wheelchair scooter drone" speed="3.65" length="4.67" shape="836.30,872.99 837.41,872.06 838.29,871.90 838.94,872.51 839.38,873.88"/>
    </edge>
    <edge id=":104844038_0" function="internal">
        <lane id=":104844038_0_0" index="0" disallow="tram rail_urban rail rail_electric rail_fast ship container cable_car subway aircraft wheelchair scooter drone" speed="5.60" length="6.47" shape="307.85,939.10 306.31,938.73 304.96,939.05 303.80,940.05 302.83,941.76"/>
    </edge>
    <edge id=":104844038_1" function="internal">
        <lane id=":104844038_1_0" index="0" disallow="tram rail_urban rail rail_electric rail_fast ship container cable_car subway aircraft wheelchair scooter drone" speed="11.18" length="10.30" shape="307.85,939.10 298.30,935.22"/>
    </edge>
    <edge id=":104844038_2" function="internal">
        <lane id=":104844038_2_0" index="0" disallow="tram rail_urban rail rail_electric rail_fast ship container cable_car subway aircraft wheelchair scooter drone" speed="3.65" length="1.44" shape="307.85,939.10 307.03,937.91"/>
    </edge>
    <edge id=":104844038_12" function="internal">
        <lane id=":104844038_12_0" index="0" disallow="tram rail_urban rail rail_electric rail_fast ship container cable_car subway aircraft wheelchair scooter drone" speed="3.65" length="3.23" shape="307.03,937.91 306.95,937.02 307.62,936.43 309.03,936.13"/>
    </edge>
    <edge id=":104844038_3" function="internal">
        <lane id=":104844038_3_0" index="0" disallow="tram rail_urban rail rail_electric rail_fast ship container cable_car subway aircraft wheelchair scooter drone" speed="6.30" length="8.03" shape="305.91,929.70 305.50,931.73 305.88,933.48 307.06,934.94 309.03,936.13"/>
    </edge>
    <edge id=":104844038_4" function="internal">
        <lane id=":104844038_4_0" index="0" disallow="tram rail_urban rail rail_electric rail_fast ship container cable_car subway aircraft wheelchair scooter drone" speed="11.18" length="12.46" shape="305.91,929.70 304.97,932.92 304.45,935.76 303.89,938.59 302.83,941.76"/>
    </edge>
    <edge id=":104844038_5" function="internal">
        <lane id=":104844038_5_0" index="0" disallow="tram rail_urban rail rail_electric rail_fast ship container cable_car subway aircraft wheelchair scooter drone" speed="6.82" length="10.03" shape="305.91,929.70 304.60,931.93 302.61,933.91 300.37,935.16 298.30,935.22"/>
    </edge>
    <edge id=":104844038_6" function="internal">
        <lane id=":104844038_6_0" index="0" disallow="tram rail_urban rail rail_electric rail_fast ship container cable_car subway aircraft wheelchair scooter drone" speed="11.18" length="10.37" shape="299.42,932.23 309.03,936.13"/>
    </edge>
    <edge id=":104844038_7" function="internal">
        <lane id=":104844038_7_0" index="0" disallow="tram rail_urban rail rail_electric rail_fast ship container cable_car subway aircraft wheelchair scooter drone" speed="7.19" length="3.43" shape="299.42,932.23 302.05,933.73 302.28,934.06"/>
    </edge>
    <edge id=":104844038_8" function="internal">
        <lane id=":104844038_8_0" index="0" disallow="tram rail_urban rail rail_electric rail_fast ship container cable_car subway aircraft wheelchair scooter drone" speed="3.65" length="1.44" shape="299.42,932.23 300.27,933.40"/>
    </edge>
    <edge id=":104844038_13" function="internal">
        <lane id=":104844038_13_0" index="0" disallow="tram rail_urban rail rail_electric rail_fast ship container cable_car subway aircraft wheelchair scooter drone" speed="7.19" length="8.22" shape="302.28,934.06 303.50,935.81 303.75,938.49 302.83,941.76"/>
    </edge>
    <edge id=":104844038_14" function="internal">
        <lane id=":104844038_14_0" index="0" disallow="tram rail_urban rail rail_electric rail_fast ship container cable_car subway aircraft wheelchair scooter drone" speed="3.65" length="3.23" shape="300.27,933.40 300.36,934.29 299.71,934.90 298.30,935.22"/>
    </edge>
    <edge id=":104844038_9" function="internal">
        <lane id=":104844038_9_0" index="0" disallow="tram rail_urban rail rail_electric rail_fast ship container cable_car subway aircraft wheelchair scooter drone" speed="5.48" length="6.32" shape="299.88,940.50 300.43,938.65 300.35,937.16 299.64,936.02 298.30,935.22"/>
    </edge>
    <edge id=":104844038_10" function="internal">
        <lane id=":104844038_10_0" index="0" disallow="tram rail_urban rail rail_electric rail_fast ship container cable_car subway aircraft wheelchair scooter drone" speed="7.07" length="10.95" shape="299.88,940.50 301.44,938.32 303.81,936.64 306.49,935.80 309.03,936.13"/>
    </edge>
    <edge id=":104844038_11" function="internal">
        <lane id=":104844038_11_0" index="0" disallow="tram rail_urban rail rail_electric rail_fast ship container cable_car subway aircraft wheelchair scooter drone" speed="3.65" length="1.44" shape="299.88,940.50 301.09,939.71"/>
    </edge>
    <edge id=":104844038_15" function="internal">
        <lane id=":104844038_15_0" index="0" disallow="tram rail_urban rail rail_electric rail_fast ship container cable_car subway aircraft wheelchair scooter drone" speed="3.65" length="3.23" shape="301.09,939.71 301.98,939.66 302.56,940.34 302.83,941.76"/>
    </edge>
    <edge id=":104844041_0" function="internal">
        <lane id=":104844041_0_0" index="0" allow="pedestrian delivery bicycle" speed="4.33" length="3.32" shape="382.06,969.23 381.05,972.39"/>
    </edge>
    <edge id=":104844041_1" function="internal">
        <lane id=":104844041_1_0" index="0" disallow="tram rail_urban rail rail_electric rail_fast ship container cable_car subway aircraft wheelchair scooter drone" speed="11.18" length="5.98" shape="382.06,969.23 376.52,966.98"/>
    </edge>
    <edge id=":104844041_2" function="internal">
        <lane id=":104844041_2_0" index="0" disallow="tram rail_urban rail rail_electric rail_fast ship container cable_car subway aircraft wheelchair scooter drone" speed="11.18" length="5.99" shape="377.72,964.01 383.28,966.27"/>
    </edge>
    <edge id=":104844041_3" function="internal">
        <lane id=":104844041_3_0" index="0" allow="pedestrian delivery bicycle" speed="6.83" length="3.31" shape="377.72,964.01 380.19,965.45 380.46,965.81"/>
    </edge>
    <edge id=":104844041_7" function="internal">
        <lane id=":104844041_7_0" index="0" allow="pedestrian delivery bicycle" speed="6.83" length="7.07" shape="380.46,965.81 381.57,967.33 381.86,969.64 381.05,972.39"/>
    </edge>
    <edge id=":104844041_4" function="internal">
        <lane id=":104844041_4_0" index="0" allow="pedestrian delivery bicycle" speed="4.99" length="5.05" shape="378.14,971.05 378.53,969.72 378.40,968.59 377.72,967.68 376.52,966.98"/>
    </edge>
    <edge id=":104844041_5" function="internal">
        <lane id=":104844041_5_0" index="0" allow="pedestrian delivery bicycle" speed="6.12" length="7.62" shape="378.14,971.05 379.46,968.58 380.75,966.96 382.02,966.19 383.28,966.27"/>
    </edge>
    <edge id=":104844041_6" function="internal">
        <lane id=":104844041_6_0" index="0" allow="pedestrian delivery bicycle" speed="3.65" length="4.67" shape="378.14,971.05 379.37,970.30 380.26,970.27 380.82,970.96 381.05,972.39"/>
    </edge>
    <edge id=":104844049_0" function="internal">
        <lane id=":104844049_0_0" index="0" allow="bus bicycle" speed="5.41" length="7.24" shape="407.89,979.74 405.80,979.21 404.24,979.50 403.22,980.61 402.74,982.54"/>
        <lane id=":104844049_0_1" index="1" allow="bus" speed="6.37" length="10.54" shape="407.89,979.74 404.44,978.73 401.89,978.80 400.27,979.98 399.55,982.25"/>
    </edge>
    <edge id=":104844049_2" function="internal">
        <lane id=":104844049_2_0" index="0" disallow="tram rail_urban rail rail_electric rail_fast ship container cable_car subway aircraft wheelchair scooter drone" speed="11.18" length="13.70" shape="407.89,979.74 395.19,974.61"/>
    </edge>
    <edge id=":104844049_3" function="internal">
        <lane id=":104844049_3_0" index="0" disallow="tram rail_urban rail rail_electric rail_fast ship container cable_car subway aircraft wheelchair scooter drone" speed="7.73" length="4.27" shape="407.89,979.74 405.29,977.97 404.62,977.07"/>
    </edge>
    <edge id=":104844049_4" function="internal">
        <lane id=":104844049_4_0" index="0" disallow="tram rail_urban rail rail_electric rail_fast ship container cable_car subway aircraft wheelchair scooter drone" speed="3.65" length="1.44" shape="407.89,979.74 407.08,978.56"/>
    </edge>
    <edge id=":104844049_15" function="internal">
        <lane id=":104844049_15_0" index="0" disallow="tram rail_urban rail rail_electric rail_fast ship container cable_car subway aircraft wheelchair scooter drone" speed="7.73" length="8.62" shape="404.62,977.07 403.27,975.25 402.21,972.10 402.45,969.09"/>
    </edge>
    <edge id=":104844049_16" function="internal">